#	Name: ASD00890014
#	Creating user name:	WinNT
#	Creation time:	15. 06. 2019 18:53

#	Modifying user name:	WinNT
#	Modification time:	15. 06. 2019 18:53

#	Program:	/corina/corina34_cracker 3.40 0067  02.08.2006

@<TRIPOS>MOLECULE
ASD00890014
  43   46    0    0    0
SMALL
NO_CHARGES


@<TRIPOS>ATOM
   1 C1             2.7490     5.5785    -0.6566 C.ar    
   2 C2             2.9961     6.7332    -1.3783 C.ar    
   3 C3             1.9991     7.2823    -2.1665 C.ar    
   4 C4             0.7562     6.6758    -2.2319 C.ar    
   5 C5             0.5104     5.5227    -1.5102 C.ar    
   6 C6             1.5049     4.9736    -0.7235 C.ar    
   7 C7             1.2355     3.7162     0.0622 C.3     
   8 N8             2.0612     4.2697     3.5786 N.2     
   9 C9             2.1267     3.9869     2.3071 C.2     
  10 N10            1.0703     4.0515     1.4787 N.pl3   
  11 C11           -0.1705     4.4323     1.9530 C.ar    
  12 C12           -0.2960     4.7483     3.3180 C.ar    
  13 C13           -1.5299     5.1360     3.8346 C.ar    
  14 C14           -2.6258     5.2065     2.9945 C.ar    
  15 C15           -2.4985     4.8925     1.6438 C.ar    
  16 C16           -1.2814     4.5084     1.1236 C.ar    
  17 C17            0.9093     4.6531     4.1609 C.2     
  18 O18            0.8646     4.9136     5.3509 O.2     
  19 O19           -3.8342     5.5839     3.4899 O.3     
  20 C20           -4.0026     6.8848     3.8360 C.ar    
  21 N21           -3.0476     7.7615     3.5731 N.ar    
  22 C22           -3.1706     9.0358     3.8926 C.ar    
  23 C23           -4.3097     9.5019     4.5180 C.ar    
  24 C24           -5.3354     8.6134     4.8113 C.ar    
  25 C25           -5.1788     7.2847     4.4580 C.ar    
  26 C26           -6.2667     6.2836     4.7500 C.3     
  27 F27           -7.3390     6.9291     5.3752 F       
  28 F28            2.2388     8.4097    -2.8712 F       
  29 F29           -6.7036     5.7071     3.5525 F       
  30 F30           -5.7676     5.2852     5.5934 F       
  31 F31            3.7227     5.0385     0.1086 F       
  32 H32            3.9658     7.2059    -1.3264 H       
  33 H33           -0.0217     7.1039    -2.8467 H       
  34 H34           -0.4596     5.0507    -1.5613 H       
  35 H35            0.3254     3.2443    -0.3080 H       
  36 H36            2.0738     3.0291    -0.0531 H       
  37 H37            3.0798     3.6855     1.8983 H       
  38 H38           -1.6299     5.3790     4.8822 H       
  39 H39           -3.3619     4.9506     0.9976 H       
  40 H40           -1.1922     4.2671     0.0746 H       
  41 H41           -2.3698     9.7229     3.6623 H       
  42 H42           -4.4018    10.5464     4.7767 H       
  43 H43           -6.2367     8.9524     5.3003 H       
@<TRIPOS>BOND
   1    1    2 ar
   2    1    6 ar
   3    1   31 1
   4    2    3 ar
   5    2   32 1
   6    3    4 ar
   7    3   28 1
   8    4    5 ar
   9    4   33 1
  10    5    6 ar
  11    5   34 1
  12    6    7 1
  13    7   10 1
  14    7   35 1
  15    7   36 1
  16    8    9 2
  17    8   17 1
  18    9   10 1
  19    9   37 1
  20   10   11 1
  21   11   12 ar
  22   11   16 ar
  23   12   13 ar
  24   12   17 1
  25   13   14 ar
  26   13   38 1
  27   14   15 ar
  28   14   19 1
  29   15   16 ar
  30   15   39 1
  31   16   40 1
  32   17   18 2
  33   19   20 1
  34   20   21 ar
  35   20   25 ar
  36   21   22 ar
  37   22   23 ar
  38   22   41 1
  39   23   24 ar
  40   23   42 1
  41   24   25 ar
  42   24   43 1
  43   25   26 1
  44   26   27 1
  45   26   29 1
  46   26   30 1

#	End of record

