#	Name: ASD04840068
#	Creating user name:	WinNT
#	Creation time:	15. 06. 2019 20:52

#	Modifying user name:	WinNT
#	Modification time:	15. 06. 2019 20:52

#	Program:	/corina/corina34_cracker 3.40 0067  02.08.2006

@<TRIPOS>MOLECULE
ASD04840068
  45   48    0    0    0
SMALL
NO_CHARGES


@<TRIPOS>ATOM
   1 C1            -0.0170     1.4008     0.0097 C.ar    
   2 C2             0.0021    -0.0041     0.0020 C.ar    
   3 C3             1.1940    -0.6614    -0.0128 C.ar    
   4 C4             2.3990     0.0381    -0.0201 C.ar    
   5 C5             2.4193     1.3992    -0.0125 C.ar    
   6 C6             1.2089     2.1124     0.0019 C.ar    
   7 C7             1.1898     3.5178     0.0090 C.ar    
   8 C8            -0.0019     4.1748     0.0234 C.ar    
   9 C9            -1.2073     3.4751     0.0312 C.ar    
  10 C10           -1.2278     2.1144     0.0193 C.ar    
  11 C11           -2.5418     1.3766     0.0216 C.3     
  12 O12           -3.6167     2.3181     0.0317 O.3     
  13 C13           -4.8764     1.8147     0.0350 C.ar    
  14 C14           -5.9814     2.6799     0.0449 C.ar    
  15 C15           -7.2775     2.1537     0.0478 C.ar    
  16 C16           -7.4689     0.8024     0.0410 C.ar    
  17 C17           -6.3738    -0.0648     0.0316 C.ar    
  18 C18           -5.0780     0.4450     0.0229 C.ar    
  19 C19           -5.7768     4.1381     0.0527 C.2     
  20 O20           -6.8391     4.9676     0.0622 O.3     
  21 O21           -4.6501     4.5937     0.0506 O.2     
  22 C22           -6.5918    -1.5312     0.0248 C.ar    
  23 C23           -7.8876    -2.0456     0.0277 C.ar    
  24 C24           -8.0856    -3.4107     0.0214 C.ar    
  25 C25           -6.9988    -4.2705     0.0122 C.ar    
  26 C26           -5.7090    -3.7638     0.0097 C.ar    
  27 C27           -5.5015    -2.4001     0.0097 C.ar    
  28 F28           -7.1974    -5.6068     0.0060 F       
  29 H29           -0.9241    -0.5595     0.0082 H       
  30 H30            1.2059    -1.7413    -0.0188 H       
  31 H31            3.3309    -0.5077    -0.0315 H       
  32 H32            3.3610     1.9281    -0.0175 H       
  33 H33            2.1159     4.0733     0.0034 H       
  34 H34           -0.0137     5.2548     0.0292 H       
  35 H35           -2.1391     4.0210     0.0427 H       
  36 H36           -2.6113     0.7554    -0.8714 H       
  37 H37           -2.6028     0.7459     0.9085 H       
  38 H38           -8.1287     2.8183     0.0557 H       
  39 H39           -8.4718     0.4017     0.0432 H       
  40 H40           -4.2322    -0.2265     0.0112 H       
  41 H41           -6.6548     5.9168     0.0670 H       
  42 H42           -8.7352    -1.3762     0.0353 H       
  43 H43           -9.0890    -3.8100     0.0240 H       
  44 H44           -4.8650    -4.4376     0.0028 H       
  45 H45           -4.4959    -2.0060     0.0029 H       
@<TRIPOS>BOND
   1    1    2 ar
   2    1    6 ar
   3    1   10 ar
   4    2    3 ar
   5    2   29 1
   6    3    4 ar
   7    3   30 1
   8    4    5 ar
   9    4   31 1
  10    5    6 ar
  11    5   32 1
  12    6    7 ar
  13    7    8 ar
  14    7   33 1
  15    8    9 ar
  16    8   34 1
  17    9   10 ar
  18    9   35 1
  19   10   11 1
  20   11   12 1
  21   11   36 1
  22   11   37 1
  23   12   13 1
  24   13   14 ar
  25   13   18 ar
  26   14   15 ar
  27   14   19 1
  28   15   16 ar
  29   15   38 1
  30   16   17 ar
  31   16   39 1
  32   17   18 ar
  33   17   22 1
  34   18   40 1
  35   19   20 1
  36   19   21 2
  37   20   41 1
  38   22   23 ar
  39   22   27 ar
  40   23   24 ar
  41   23   42 1
  42   24   25 ar
  43   24   43 1
  44   25   26 ar
  45   25   28 1
  46   26   27 ar
  47   26   44 1
  48   27   45 1

#	End of record

