#	Name: ASD01814075
#	Creating user name:	WinNT
#	Creation time:	15. 06. 2019 19:31

#	Modifying user name:	WinNT
#	Modification time:	15. 06. 2019 19:31

#	Program:	/corina/corina34_cracker 3.40 0067  02.08.2006

@<TRIPOS>MOLECULE
ASD01814075
  48   52    0    0    0
SMALL
NO_CHARGES


@<TRIPOS>ATOM
   1 C1             1.1549     2.2509    -0.5133 C.ar    
   2 C2             0.7786     0.9156    -0.4983 C.ar    
   3 C3             1.7214    -0.0801    -0.3469 C.ar    
   4 C4             3.0684     0.2526    -0.2070 C.ar    
   5 C5             3.4448     1.6060    -0.2229 C.ar    
   6 C6             2.4799     2.6015    -0.3768 C.ar    
   7 N7             4.0209    -0.7324    -0.0539 N.pl3   
   8 C8             5.3253    -0.4649     0.0853 C.2     
   9 C9             5.8155     0.8257     0.0857 C.2     
  10 C10            4.8726     1.9444    -0.0741 C.2     
  11 O11            5.2551     3.1013    -0.0806 O.2     
  12 C12            7.2549     1.0782     0.2422 C.2     
  13 O13            7.7214     2.3430     0.2411 O.3     
  14 O14            8.0248     0.1465     0.3728 O.2     
  15 C15            3.5871    -2.1316    -0.0427 C.3     
  16 C16            3.4445    -2.6248    -1.4595 C.ar    
  17 C17            4.5267    -2.5715    -2.3222 C.ar    
  18 C18            4.3974    -3.0235    -3.6234 C.ar    
  19 C19            3.1821    -3.5304    -4.0624 C.ar    
  20 C20            2.0995    -3.5824    -3.1938 C.ar    
  21 C21            2.2352    -3.1349    -1.8944 C.ar    
  22 N22            3.0476    -3.9883    -5.3792 N.pl3   
  23 F23            1.3400    -1.3761    -0.3336 F       
  24 C24            3.4232    -3.2917    -6.4977 C.2     
  25 C25            3.1581    -4.0147    -7.5972 C.2     
  26 C26            2.5646    -5.2770    -7.1485 C.ar    
  27 C27            2.5229    -5.2102    -5.7439 C.ar    
  28 F28            5.7087    -2.0778    -1.8931 F       
  29 C29            2.0890    -6.4131    -7.8060 C.ar    
  30 C30            1.5802    -7.4535    -7.0809 C.ar    
  31 C31            1.5322    -7.3901    -5.6950 C.ar    
  32 C32            2.0016    -6.2811    -5.0257 C.ar    
  33 H33            0.4058     3.0190    -0.6372 H       
  34 H34           -0.2634     0.6529    -0.6058 H       
  35 H35            2.7703     3.6416    -0.3892 H       
  36 H36            6.0171    -1.2860     0.2014 H       
  37 H37            8.6755     2.4591     0.3471 H       
  38 H38            4.3273    -2.7373     0.4801 H       
  39 H39            2.6272    -2.2103     0.4677 H       
  40 H40            5.2408    -2.9815    -4.2968 H       
  41 H41            1.1529    -3.9761    -3.5335 H       
  42 H42            1.3932    -3.1758    -1.2193 H       
  43 H43            3.8665    -2.3069    -6.4951 H       
  44 H44            3.3464    -3.7213    -8.6194 H       
  45 H45            2.1228    -6.4692    -8.8840 H       
  46 H46            1.2120    -8.3319    -7.5901 H       
  47 H47            1.1269    -8.2203    -5.1356 H       
  48 H48            1.9600    -6.2412    -3.9472 H       
@<TRIPOS>BOND
   1    1    2 ar
   2    1    6 ar
   3    1   33 1
   4    2    3 ar
   5    2   34 1
   6    3    4 ar
   7    3   23 1
   8    4    5 ar
   9    4    7 1
  10    5    6 ar
  11    5   10 1
  12    6   35 1
  13    7    8 1
  14    7   15 1
  15    8    9 2
  16    8   36 1
  17    9   10 1
  18    9   12 1
  19   10   11 2
  20   12   13 1
  21   12   14 2
  22   13   37 1
  23   15   16 1
  24   15   38 1
  25   15   39 1
  26   16   17 ar
  27   16   21 ar
  28   17   18 ar
  29   17   28 1
  30   18   19 ar
  31   18   40 1
  32   19   20 ar
  33   19   22 1
  34   20   21 ar
  35   20   41 1
  36   21   42 1
  37   22   24 1
  38   22   27 1
  39   24   25 2
  40   24   43 1
  41   25   26 1
  42   25   44 1
  43   26   27 ar
  44   26   29 ar
  45   27   32 ar
  46   29   30 ar
  47   29   45 1
  48   30   31 ar
  49   30   46 1
  50   31   32 ar
  51   31   47 1
  52   32   48 1

#	End of record

