#	Name: ASD05740076
#	Creating user name:	WinNT
#	Creation time:	15. 06. 2019 21:02

#	Modifying user name:	WinNT
#	Modification time:	15. 06. 2019 21:02

#	Program:	/corina/corina34_cracker 3.40 0067  02.08.2006

@<TRIPOS>MOLECULE
ASD05740076
  52   53    0    0    0
SMALL
NO_CHARGES


@<TRIPOS>ATOM
   1 C1            -0.2151     1.4699     0.2736 C.3     
   2 C2             1.2609    -0.5688    -0.0851 C.2     
   3 C3             1.3844    -1.9331    -0.2787 C.2     
   4 C4            -0.0420    -0.0120     0.0612 C.2     
   5 C5            -1.1275    -0.8275     0.0081 C.2     
   6 C6            -0.9495    -2.2059    -0.1900 C.2     
   7 O7             0.2815    -2.7182    -0.3267 O.3     
   8 C8            -2.5136    -0.2561     0.1613 C.3     
   9 C9            -3.0994     0.0129    -1.2008 C.ar    
  10 C10           -2.9988     1.2743    -1.7597 C.ar    
  11 O11           -1.9209    -2.9417    -0.2383 O.2     
  12 C12           -4.2723    -0.7522    -3.1507 C.ar    
  13 C13           -4.1740     0.5167    -3.7044 C.ar    
  14 C14           -3.5348     1.5253    -3.0088 C.ar    
  15 N15           -4.9186    -1.7749    -3.8522 N.am    
  16 S16           -6.2371    -1.4289    -4.7924 S.o2    
  17 O17           -6.6612    -2.6616    -5.3580 O.2     
  18 O18           -7.0845    -0.6021    -4.0066 O.2     
  19 S19            3.0847    -2.3637    -0.4290 S.3     
  20 C20            3.5946    -0.6987    -0.2282 C.2     
  21 C21            2.5524     0.1022    -0.0565 C.2     
  22 N22            4.9228    -0.2734    -0.2407 N.pl3   
  23 N23           -5.7087    -0.4934    -6.0526 N.am    
  24 C24           -4.7803    -1.0505    -7.0394 C.3     
  25 C25           -3.7321    -1.0025    -1.8934 C.ar    
  26 F26           -3.8253    -2.2361    -1.3503 F       
  27 C27            6.0016    -1.2459    -0.4319 C.3     
  28 H28            0.7626     1.9517     0.2872 H       
  29 H29           -0.8138     1.8857    -0.5368 H       
  30 H30           -0.7192     1.6443     1.2241 H       
  31 H31           -3.1436    -0.9688     0.6935 H       
  32 H32           -2.4623     0.6753     0.7252 H       
  33 H33           -2.5005     2.0650    -1.2185 H       
  34 H34           -4.5964     0.7156    -4.6783 H       
  35 H35           -3.4541     2.5114    -3.4418 H       
  36 H36           -4.5945    -2.6869    -3.7880 H       
  37 H37            2.6530     1.1681     0.0849 H       
  38 H38            5.1322     0.6664    -0.1228 H       
  39 H39           -6.0140     0.4234    -6.1373 H       
  40 H40           -4.5474    -0.2927    -7.7875 H       
  41 H41           -3.8629    -1.3619    -6.5399 H       
  42 H42           -5.2398    -1.9114    -7.5251 H       
  43 H43            6.9623    -0.7313    -0.4126 H       
  44 H44            5.9696    -1.9859     0.3677 H       
  45 H45            5.8755    -1.7440    -1.3932 H       
  46 C46           12.4895    10.1807     8.0924 C.3     
  47 N47           12.5093     8.7159     8.0844 N.2     
  48 C48           13.0500     8.1034     7.1384 C.1     
  49 O49           13.5726     7.5114     6.2241 O.2     
  50 H50           13.5120    10.5580     8.0847 H       
  51 H51           11.9623    10.5418     7.2094 H       
  52 H52           11.9793    10.5323     8.9892 H       
@<TRIPOS>BOND
   1    1    4 1
   2    1   28 1
   3    1   29 1
   4    1   30 1
   5    2    3 2
   6    2    4 1
   7    2   21 1
   8    3   19 1
   9    3    7 1
  10    4    5 2
  11    5    6 1
  12    5    8 1
  13    6    7 1
  14    6   11 2
  15    8    9 1
  16    8   31 1
  17    8   32 1
  18    9   10 ar
  19    9   25 ar
  20   10   14 ar
  21   10   33 1
  22   12   13 ar
  23   12   15 1
  24   12   25 ar
  25   13   14 ar
  26   13   34 1
  27   14   35 1
  28   15   16 am
  29   15   36 1
  30   16   17 2
  31   16   18 2
  32   16   23 am
  33   19   20 1
  34   20   21 2
  35   20   22 1
  36   21   37 1
  37   22   27 1
  38   22   38 1
  39   23   24 1
  40   23   39 1
  41   24   40 1
  42   24   41 1
  43   24   42 1
  44   25   26 1
  45   27   43 1
  46   27   44 1
  47   27   45 1
  48   46   47 1
  49   46   50 1
  50   46   51 1
  51   46   52 1
  52   47   48 2
  53   48   49 2

#	End of record

