#	Name: ASD01810917
#	Creating user name:	WinNT
#	Creation time:	15. 06. 2019 19:25

#	Modifying user name:	WinNT
#	Modification time:	15. 06. 2019 19:25

#	Program:	/corina/corina34_cracker 3.40 0067  02.08.2006

@<TRIPOS>MOLECULE
ASD01810917
  57   62    0    0    0
SMALL
NO_CHARGES


@<TRIPOS>ATOM
   1 N1            -0.0167     1.3798     0.0096 N.3     
   2 C2             0.0021    -0.0041     0.0020 C.ar    
   3 N3             0.6007    -0.6482     0.9931 N.ar    
   4 C4             0.6366    -1.9703     1.0161 C.ar    
   5 C5             0.0384    -2.6809    -0.0127 C.ar    
   6 C6            -0.5790    -1.9755    -1.0337 C.ar    
   7 N7            -0.5837    -0.6533    -0.9934 N.ar    
   8 C8             1.3577     1.9290    -0.0005 C.3     
   9 C9             1.3333     3.2228     0.8393 C.3     
  10 C10           -0.1081     3.3303     1.3528 C.3     
  11 C11           -0.6558     1.8975     1.2492 C.3     
  12 C12           -0.1663     3.8482     2.7593 C.ar    
  13 C13           -0.9495     4.9988     2.7055 C.ar    
  14 N14           -1.3758     5.2321     1.3959 N.am    
  15 C15           -0.9221     4.2953     0.5395 C.2     
  16 C16            0.3676     3.4194     3.9536 C.ar    
  17 C17            0.1296     4.1330     5.1152 C.ar    
  18 C18           -0.6462     5.2767     5.0735 C.ar    
  19 C19           -1.1844     5.7100     3.8793 C.ar    
  20 O20           -1.1307     4.2420    -0.6541 O.2     
  21 C21           -2.2176     6.3636     0.9993 C.3     
  22 C22           -1.3437     7.5324     0.6234 C.ar    
  23 C23           -0.7516     7.5775    -0.6285 C.ar    
  24 C24            0.0507     8.6480    -0.9769 C.ar    
  25 C25            0.2624     9.6809    -0.0669 C.ar    
  26 C26           -0.3358     9.6295     1.1900 C.ar    
  27 C27           -1.1399     8.5590     1.5268 C.ar    
  28 C28            1.1235    10.8331    -0.4352 C.2     
  29 F29           -0.9581     6.5742    -1.5093 F       
  30 C30            1.4144    11.9071     0.3544 C.2     
  31 N31            2.2244    12.7233    -0.3495 N.pl3   
  32 N32            2.4435    12.1454    -1.6058 N.2     
  33 C33            1.7934    11.0131    -1.6610 C.2     
  34 C34            2.7796    13.9954     0.1194 C.3     
  35 H35            1.1263    -2.4897     1.8264 H       
  36 H36            0.0533    -3.7607    -0.0188 H       
  37 H37           -1.0540    -2.4991    -1.8502 H       
  38 H38            2.0477     1.2112     0.4430 H       
  39 H39            1.6595     2.1556    -1.0231 H       
  40 H40            2.0290     3.1459     1.6749 H       
  41 H41            1.5796     4.0835     0.2175 H       
  42 H42           -1.7410     1.9066     1.1479 H       
  43 H43           -0.3537     1.3064     2.1137 H       
  44 H44            0.9730     2.5256     3.9840 H       
  45 H45            0.5490     3.7974     6.0521 H       
  46 H46           -0.8320     5.8334     5.9801 H       
  47 H47           -1.7895     6.6042     3.8547 H       
  48 H48           -2.8304     6.0783     0.1442 H       
  49 H49           -2.8632     6.6453     1.8311 H       
  50 H50            0.5126     8.6831    -1.9525 H       
  51 H51           -0.1743    10.4283     1.8986 H       
  52 H52           -1.6040     8.5193     2.5012 H       
  53 H53            1.0597    12.0734     1.3608 H       
  54 H54            1.7682    10.3368    -2.5026 H       
  55 H55            3.7381    13.8160     0.6064 H       
  56 H56            2.9229    14.6641    -0.7294 H       
  57 H57            2.0910    14.4525     0.8299 H       
@<TRIPOS>BOND
   1    1    2 1
   2    1    8 1
   3    1   11 1
   4    2    3 ar
   5    2    7 ar
   6    3    4 ar
   7    4    5 ar
   8    4   35 1
   9    5    6 ar
  10    5   36 1
  11    6    7 ar
  12    6   37 1
  13    8    9 1
  14    8   38 1
  15    8   39 1
  16    9   10 1
  17    9   40 1
  18    9   41 1
  19   10   11 1
  20   10   12 1
  21   10   15 1
  22   11   42 1
  23   11   43 1
  24   12   13 ar
  25   12   16 ar
  26   13   14 1
  27   13   19 ar
  28   14   15 am
  29   14   21 1
  30   15   20 2
  31   16   17 ar
  32   16   44 1
  33   17   18 ar
  34   17   45 1
  35   18   19 ar
  36   18   46 1
  37   19   47 1
  38   21   22 1
  39   21   48 1
  40   21   49 1
  41   22   23 ar
  42   22   27 ar
  43   23   24 ar
  44   23   29 1
  45   24   25 ar
  46   24   50 1
  47   25   26 ar
  48   25   28 1
  49   26   27 ar
  50   26   51 1
  51   27   52 1
  52   28   30 2
  53   28   33 1
  54   30   31 1
  55   30   53 1
  56   31   32 1
  57   31   34 1
  58   32   33 2
  59   33   54 1
  60   34   55 1
  61   34   56 1
  62   34   57 1

#	End of record

