#	Name: ASD01910114
#	Creating user name:	WinNT
#	Creation time:	15. 06. 2019 19:55

#	Modifying user name:	WinNT
#	Modification time:	15. 06. 2019 19:55

#	Program:	/corina/corina34_cracker 3.40 0067  02.08.2006

@<TRIPOS>MOLECULE
ASD01910114
  42   45    0    0    0
SMALL
NO_CHARGES


@<TRIPOS>ATOM
   1 C1             0.1138     0.5054     0.4057 C.ar    
   2 C2             0.3447    -0.8590     0.4522 C.ar    
   3 C3             1.6412    -1.3555     0.3878 C.ar    
   4 C4             2.7065    -0.4785     0.2765 C.ar    
   5 C5             2.4698     0.9111     0.2293 C.ar    
   6 C6             1.1716     1.3927     0.2944 C.ar    
   7 C7             4.1730    -0.6419     0.1856 C.2     
   8 N8             4.7345     0.5770     0.0926 N.am    
   9 C9             3.7993     1.5436     0.1114 C.2     
  10 C10            6.1752     0.8197    -0.0155 C.3     
  11 C11            6.5996     0.6915    -1.4558 C.ar    
  12 C12            6.4466     1.7648    -2.3236 C.ar    
  13 C13            6.8388     1.6432    -3.6506 C.ar    
  14 C14            7.3794     0.4561    -4.1034 C.ar    
  15 C15            7.5308    -0.6121    -3.2364 C.ar    
  16 C16            7.1462    -0.4918    -1.9126 C.ar    
  17 N17            5.8982     2.9661    -1.8623 N.am    
  18 C18            5.3494     3.8350    -2.7342 C.2     
  19 C19            4.8747     5.1567    -2.2631 C.ar    
  20 O20            5.2441     3.5342    -3.9070 O.2     
  21 O21            4.0125     2.7374     0.0429 O.2     
  22 O22            4.7705    -1.6991     0.1942 O.2     
  23 Cl23           8.2103    -2.1034    -3.8091 Cl      
  24 C24            4.3084     6.0503    -3.1692 C.ar    
  25 C25            3.8684     7.2832    -2.7133 C.ar    
  26 C26            4.0101     7.5792    -1.3668 C.ar    
  27 C27            4.5830     6.6419    -0.5217 C.ar    
  28 N28            4.9875     5.4775    -0.9798 N.ar    
  29 F29           -0.6966    -1.7129     0.5612 F       
  30 H30           -0.8980     0.8801     0.4520 H       
  31 H31            1.8168    -2.4204     0.4247 H       
  32 H32            0.9856     2.4560     0.2583 H       
  33 H33            6.4023     1.8240     0.3422 H       
  34 H34            6.7131     0.0888     0.5882 H       
  35 H35            6.7206     2.4763    -4.3276 H       
  36 H36            7.6842     0.3609    -5.1351 H       
  37 H37            7.2654    -1.3269    -1.2382 H       
  38 H38            5.9129     3.1738    -0.9149 H       
  39 H39            4.2139     5.7865    -4.2122 H       
  40 H40            3.4254     7.9971    -3.3920 H       
  41 H41            3.6777     8.5312    -0.9798 H       
  42 H42            4.6950     6.8693     0.5281 H       
@<TRIPOS>BOND
   1    1    2 ar
   2    1    6 ar
   3    1   30 1
   4    2    3 ar
   5    2   29 1
   6    3    4 ar
   7    3   31 1
   8    4    5 ar
   9    4    7 1
  10    5    6 ar
  11    5    9 1
  12    6   32 1
  13    7    8 am
  14    7   22 2
  15    8    9 am
  16    8   10 1
  17    9   21 2
  18   10   11 1
  19   10   33 1
  20   10   34 1
  21   11   12 ar
  22   11   16 ar
  23   12   13 ar
  24   12   17 1
  25   13   14 ar
  26   13   35 1
  27   14   15 ar
  28   14   36 1
  29   15   16 ar
  30   15   23 1
  31   16   37 1
  32   17   18 am
  33   17   38 1
  34   18   19 1
  35   18   20 2
  36   19   24 ar
  37   19   28 ar
  38   24   25 ar
  39   24   39 1
  40   25   26 ar
  41   25   40 1
  42   26   27 ar
  43   26   41 1
  44   27   28 ar
  45   27   42 1

#	End of record

