#	Name: ASD06170052
#	Creating user name:	WinNT
#	Creation time:	15. 06. 2019 21:05

#	Modifying user name:	WinNT
#	Modification time:	15. 06. 2019 21:05

#	Program:	/corina/corina34_cracker 3.40 0067  02.08.2006

@<TRIPOS>MOLECULE
ASD06170052
  71   75    0    0    0
SMALL
NO_CHARGES


@<TRIPOS>ATOM
   1 N1             0.0941     1.7297    -0.0941 N.pl3   
   2 N2             0.0203     0.3531     0.1384 N.am    
   3 C3             1.2616    -0.1051     0.4023 C.2     
   4 C4             2.1607     1.0574     0.3292 C.2     
   5 C5             1.3696     2.1465     0.0200 C.2     
   6 C6             3.6129     1.0594     0.5437 C.2     
   7 O7             4.2399     2.0983     0.4526 O.2     
   8 N8             4.2517    -0.0894     0.8414 N.am    
   9 C9            -1.1451    -0.4195     0.1038 C.ar    
  10 C10           -2.0619    -0.2504    -0.9257 C.ar    
  11 C11           -3.2114    -1.0152    -0.9572 C.ar    
  12 C12           -3.4503    -1.9482     0.0351 C.ar    
  13 C13           -2.5395    -2.1191     1.0615 C.ar    
  14 C14           -1.3853    -1.3615     1.0957 C.ar    
  15 O15            1.5757    -1.2539     0.6521 O.2     
  16 C16           -1.0460     2.5901    -0.4199 C.3     
  17 C17           -1.5934     3.1991     0.8452 C.2     
  18 C18           -2.7767     4.1301     0.7826 C.3     
  19 C19           -4.0690     3.3220     0.9162 C.3     
  20 O20           -1.0837     2.9410     1.9092 O.2     
  21 C21           -2.6889     5.1441     1.9250 C.3     
  22 C22            1.8524     3.5626    -0.1601 C.3     
  23 C23            5.6510    -0.1227     0.8801 C.ar    
  24 C24            6.3648     1.0276     1.1904 C.ar    
  25 C25            7.7461     0.9937     1.2288 C.ar    
  26 C26            8.4193    -0.1914     0.9569 C.ar    
  27 C27            7.7057    -1.3390     0.6472 C.ar    
  28 C28            6.3250    -1.3069     0.6138 C.ar    
  29 O29            9.7784    -0.2251     0.9941 O.3     
  30 N30           11.5955    -0.1153     4.6947 N.ar    
  31 C31           10.2926     0.0075     4.5952 C.ar    
  32 C32            9.6458    -0.0245     3.3665 C.ar    
  33 C33           10.3828    -0.1897     2.2068 C.ar    
  34 C34           11.7852    -0.3210     2.3258 C.ar    
  35 C35           12.5982    -0.4911     1.1958 C.ar    
  36 C36           13.9456    -0.6141     1.3430 C.ar    
  37 C37           14.5330    -0.5730     2.6108 C.ar    
  38 C38           13.7621    -0.4077     3.7391 C.ar    
  39 C39           12.3696    -0.2780     3.6152 C.ar    
  40 O40           15.8803    -0.6981     2.7307 O.3     
  41 C41           16.6261    -0.8675     1.5236 C.3     
  42 F42            8.4414     2.1121     1.5302 F       
  43 H43            3.7421    -0.8932     1.0289 H       
  44 H44           -1.8762     0.4787    -1.7005 H       
  45 H45           -3.9247    -0.8841    -1.7575 H       
  46 H46           -4.3504    -2.5446     0.0085 H       
  47 H47           -2.7290    -2.8486     1.8349 H       
  48 H48           -0.6724    -1.4982     1.8954 H       
  49 H49           -0.7219     3.3829    -1.0941 H       
  50 H50           -1.8224     1.9969    -0.9031 H       
  51 H51           -2.7746     4.6567    -0.1717 H       
  52 H52           -4.0712     2.7953     1.8706 H       
  53 H53           -4.9250     3.9953     0.8710 H       
  54 H54           -4.1316     2.5996     0.1024 H       
  55 H55           -1.7683     5.7198     1.8298 H       
  56 H56           -3.5448     5.8174     1.8797 H       
  57 H57           -2.6911     4.6174     2.8793 H       
  58 H58            1.8212     4.0818     0.7979 H       
  59 H59            2.8760     3.5526    -0.5346 H       
  60 H60            1.2094     4.0778    -0.8736 H       
  61 H61            5.8409     1.9482     1.4013 H       
  62 H62            8.2294    -2.2596     0.4359 H       
  63 H63            5.7698    -2.2023     0.3765 H       
  64 H64            9.7073     0.1369     5.4936 H       
  65 H65            8.5719     0.0785     3.3163 H       
  66 H66           12.1561    -0.5248     0.2110 H       
  67 H67           14.5681    -0.7453     0.4703 H       
  68 H68           14.2256    -0.3780     4.7141 H       
  69 H69           16.2922    -1.7714     1.0140 H       
  70 H70           16.4685    -0.0057     0.8751 H       
  71 H71           17.6864    -0.9548     1.7608 H       
@<TRIPOS>BOND
   1    1    2 1
   2    1    5 1
   3    1   16 1
   4    2    3 am
   5    2    9 1
   6    3    4 1
   7    3   15 2
   8    4    5 2
   9    4    6 1
  10    5   22 1
  11    6    7 2
  12    6    8 am
  13    8   23 1
  14    8   43 1
  15    9   10 ar
  16    9   14 ar
  17   10   11 ar
  18   10   44 1
  19   11   12 ar
  20   11   45 1
  21   12   13 ar
  22   12   46 1
  23   13   14 ar
  24   13   47 1
  25   14   48 1
  26   16   17 1
  27   16   49 1
  28   16   50 1
  29   17   18 1
  30   17   20 2
  31   18   19 1
  32   18   21 1
  33   18   51 1
  34   19   52 1
  35   19   53 1
  36   19   54 1
  37   21   55 1
  38   21   56 1
  39   21   57 1
  40   22   58 1
  41   22   59 1
  42   22   60 1
  43   23   24 ar
  44   23   28 ar
  45   24   25 ar
  46   24   61 1
  47   25   26 ar
  48   25   42 1
  49   26   27 ar
  50   26   29 1
  51   27   28 ar
  52   27   62 1
  53   28   63 1
  54   29   33 1
  55   30   31 ar
  56   30   39 ar
  57   31   32 ar
  58   31   64 1
  59   32   33 ar
  60   32   65 1
  61   33   34 ar
  62   34   35 ar
  63   34   39 ar
  64   35   36 ar
  65   35   66 1
  66   36   37 ar
  67   36   67 1
  68   37   38 ar
  69   37   40 1
  70   38   39 ar
  71   38   68 1
  72   40   41 1
  73   41   69 1
  74   41   70 1
  75   41   71 1

#	End of record

