#	Name: ASD01910069
#	Creating user name:	WinNT
#	Creation time:	15. 06. 2019 19:55

#	Modifying user name:	WinNT
#	Modification time:	15. 06. 2019 19:55

#	Program:	/corina/corina34_cracker 3.40 0067  02.08.2006

@<TRIPOS>MOLECULE
ASD01910069
  43   46    0    0    0
SMALL
NO_CHARGES


@<TRIPOS>ATOM
   1 C1             0.0012     1.1856     0.3617 C.2     
   2 N2             0.0440     0.0954    -0.3566 N.2     
   3 N3             1.3812    -0.2296    -0.6122 N.pl3   
   4 C4             2.1661     0.7098    -0.0191 C.2     
   5 C5             1.3215     1.6132     0.6015 C.2     
   6 C6             1.8329    -1.3314    -1.3510 C.ar    
   7 N7             3.5554     0.7535    -0.0331 N.am    
   8 C8             4.2655    -0.1663     0.6497 C.2     
   9 C9             5.7402    -0.1822     0.5533 C.ar    
  10 O10            3.6929    -0.9829     1.3450 O.2     
  11 C11            1.2291    -2.5714    -1.1905 C.ar    
  12 C12            1.6763    -3.6553    -1.9203 C.ar    
  13 C13            2.7246    -3.5066    -2.8099 C.ar    
  14 C14            3.3280    -2.2730    -2.9719 C.ar    
  15 C15            2.8815    -1.1840    -2.2491 C.ar    
  16 C16            6.4787    -1.1336     1.2592 C.ar    
  17 C17            7.8549    -1.1432     1.1644 C.ar    
  18 C18            8.5034    -0.2127     0.3719 C.ar    
  19 C19            7.7775     0.7329    -0.3305 C.ar    
  20 C20            6.4005     0.7503    -0.2487 C.ar    
  21 C21            1.7308     2.8100     1.3757 C.ar    
  22 C22            1.1551     4.0499     1.1034 C.ar    
  23 C23            1.5399     5.1602     1.8270 C.ar    
  24 C24            2.4953     5.0445     2.8207 C.ar    
  25 C25            3.0703     3.8166     3.0950 C.ar    
  26 C26            2.6885     2.6982     2.3823 C.ar    
  27 H27           -0.8950     1.6783     0.7089 H       
  28 H28            4.0138     1.4460    -0.5343 H       
  29 H29            0.4109    -2.6883    -0.4953 H       
  30 H30            1.2071    -4.6200    -1.7959 H       
  31 H31            3.0730    -4.3559    -3.3789 H       
  32 H32            4.1467    -2.1601    -3.6672 H       
  33 H33            3.3530    -0.2207    -2.3764 H       
  34 H34            5.9738    -1.8602     1.8785 H       
  35 H35            8.4275    -1.8784     1.7103 H       
  36 H36            9.5810    -0.2244     0.3014 H       
  37 H37            8.2898     1.4566    -0.9470 H       
  38 H38            5.8350     1.4888    -0.7976 H       
  39 H39            0.4096     4.1416     0.3273 H       
  40 H40            1.0945     6.1214     1.6169 H       
  41 H41            2.7936     5.9161     3.3843 H       
  42 H42            3.8160     3.7321     3.8717 H       
  43 H43            3.1379     1.7400     2.5975 H       
@<TRIPOS>BOND
   1    1    2 2
   2    1    5 1
   3    1   27 1
   4    2    3 1
   5    3    4 1
   6    3    6 1
   7    4    5 2
   8    4    7 1
   9    5   21 1
  10    6   11 ar
  11    6   15 ar
  12    7    8 am
  13    7   28 1
  14    8    9 1
  15    8   10 2
  16    9   16 ar
  17    9   20 ar
  18   11   12 ar
  19   11   29 1
  20   12   13 ar
  21   12   30 1
  22   13   14 ar
  23   13   31 1
  24   14   15 ar
  25   14   32 1
  26   15   33 1
  27   16   17 ar
  28   16   34 1
  29   17   18 ar
  30   17   35 1
  31   18   19 ar
  32   18   36 1
  33   19   20 ar
  34   19   37 1
  35   20   38 1
  36   21   22 ar
  37   21   26 ar
  38   22   23 ar
  39   22   39 1
  40   23   24 ar
  41   23   40 1
  42   24   25 ar
  43   24   41 1
  44   25   26 ar
  45   25   42 1
  46   26   43 1

#	End of record

