#	Name: ASD09740711
#	Creating user name:	WinNT
#	Creation time:	15. 06. 2019 21:23

#	Modifying user name:	WinNT
#	Modification time:	15. 06. 2019 21:23

#	Program:	/corina/corina34_cracker 3.40 0067  02.08.2006

@<TRIPOS>MOLECULE
ASD09740711
  30   31    0    0    0
SMALL
NO_CHARGES


@<TRIPOS>ATOM
   1 C1             0.0018    -0.0037    -0.0174 C.1     
   2 C2            -0.0174     1.4281     0.0015 C.ar    
   3 C3             1.1862     2.1482     0.0035 C.ar    
   4 C4             1.1646     3.5349     0.0220 C.ar    
   5 C5            -0.0371     4.2107     0.0384 C.ar    
   6 C6            -1.2425     3.5036     0.0367 C.ar    
   7 C7            -1.2329     2.1115     0.0123 C.ar    
   8 N8             0.0170    -1.1395    -0.0325 N.1     
   9 O9             2.3720     1.4882    -0.0122 O.3     
  10 C10            3.5546     2.2816    -0.1297 C.3     
  11 C11            3.9805     2.7707     1.2560 C.3     
  12 C12            4.6760     1.4383    -0.7398 C.3     
  13 C13           -2.5281     4.2338     0.0548 C.2     
  14 C14           -2.6609     5.5746     0.0738 C.2     
  15 C15           -3.9655     6.0250     0.0883 C.2     
  16 C16           -4.8956     5.0648     0.0813 C.2     
  17 S17           -4.1203     3.4867     0.0474 S.3     
  18 Br18          -6.7634     5.3593     0.0974 Br      
  19 H19            2.0926     4.0875     0.0238 H       
  20 H20           -0.0469     5.2906     0.0531 H       
  21 H21           -2.1632     1.5631     0.0064 H       
  22 H22            3.3545     3.1392    -0.7720 H       
  23 H23            4.8826     3.3759     1.1664 H       
  24 H24            3.1816     3.3715     1.6907 H       
  25 H25            4.1807     1.9131     1.8983 H       
  26 H26            4.3726     1.0899    -1.7271 H       
  27 H27            5.5781     2.0435    -0.8295 H       
  28 H28            4.8762     0.5807    -0.0975 H       
  29 H29           -1.8134     6.2440     0.0777 H       
  30 H30           -4.2164     7.0753     0.1045 H       
@<TRIPOS>BOND
   1    1    2 1
   2    1    8 3
   3    2    3 ar
   4    2    7 ar
   5    3    4 ar
   6    3    9 1
   7    4    5 ar
   8    4   19 1
   9    5    6 ar
  10    5   20 1
  11    6    7 ar
  12    6   13 1
  13    7   21 1
  14    9   10 1
  15   10   11 1
  16   10   12 1
  17   10   22 1
  18   11   23 1
  19   11   24 1
  20   11   25 1
  21   12   26 1
  22   12   27 1
  23   12   28 1
  24   13   14 2
  25   13   17 1
  26   14   15 1
  27   14   29 1
  28   15   16 2
  29   15   30 1
  30   16   17 1
  31   16   18 1

#	End of record

