#	Name: ASD05380074
#	Creating user name:	WinNT
#	Creation time:	15. 06. 2019 20:59

#	Modifying user name:	WinNT
#	Modification time:	15. 06. 2019 20:59

#	Program:	/corina/corina34_cracker 3.40 0067  02.08.2006

@<TRIPOS>MOLECULE
ASD05380074
  51   55    0    0    0
SMALL
NO_CHARGES


@<TRIPOS>ATOM
   1 C1            -0.1401     1.4434    -0.4444 C.ar    
   2 C2             0.0694     0.1193     0.0026 C.ar    
   3 C3             0.9316     2.1968    -0.9224 C.ar    
   4 C4             2.1931     1.6389    -0.9544 C.ar    
   5 C5             2.4007     0.3386    -0.5159 C.ar    
   6 C6             1.3554    -0.4216    -0.0397 C.ar    
   7 N7            -0.9879    -0.5946     0.4639 N.2     
   8 C8            -2.1839    -0.0907     0.5040 C.2     
   9 N9            -2.4767     1.1733     0.0942 N.am    
  10 C10           -1.5042     1.9859    -0.3808 C.2     
  11 C11           -3.7951     1.6397     0.1706 C.ar    
  12 C12           -4.6646     1.4454    -0.8945 C.ar    
  13 C13           -4.2371     2.2924     1.3138 C.ar    
  14 C14           -5.5378     2.7513     1.3860 C.ar    
  15 C15           -6.3996     2.5612     0.3214 C.ar    
  16 C16           -5.9641     1.9066    -0.8162 C.ar    
  17 C17           -3.3046    -0.9496     1.0305 C.3     
  18 N18           -3.0859    -2.3403     0.6251 N.pl3   
  19 C19           -4.1594    -3.2065     0.5175 C.ar    
  20 N20           -5.3943    -2.7922     0.7783 N.ar    
  21 O21           -1.7519     3.1190    -0.7508 O.2     
  22 C22           -3.9675    -4.5422     0.1242 C.ar    
  23 C23           -5.0931    -5.3774     0.0311 C.ar    
  24 N24           -6.2930    -4.8812     0.3156 N.ar    
  25 C25           -6.4297    -3.6158     0.6773 C.ar    
  26 N26           -2.8873    -5.2880    -0.2152 N.2     
  27 C27           -3.2696    -6.4976    -0.5034 C.2     
  28 N28           -4.6230    -6.6034    -0.3665 N.pl3   
  29 Cl29           0.6804     3.8238    -1.4733 Cl      
  30 C30           -3.3393    -0.8629     2.5576 C.3     
  31 C31           -4.5514    -1.6336     3.0848 C.3     
  32 N32           -7.6973    -3.1344     0.9608 N.pl3   
  33 H33            3.0258     2.2187    -1.3241 H       
  34 H34            3.3947    -0.0824    -0.5479 H       
  35 H35            1.5299    -1.4322     0.2986 H       
  36 H36           -4.3250     0.9345    -1.7834 H       
  37 H37           -3.5646     2.4408     2.1457 H       
  38 H38           -5.8823     3.2587     2.2749 H       
  39 H39           -7.4163     2.9209     0.3802 H       
  40 H40           -6.6395     1.7600    -1.6461 H       
  41 H41           -4.2533    -0.5978     0.6250 H       
  42 H42           -2.1885    -2.6539     0.4322 H       
  43 H43           -2.6128    -7.2995    -0.8067 H       
  44 H44           -5.1551    -7.3995    -0.5212 H       
  45 H45           -2.4269    -1.2966     2.9670 H       
  46 H46           -3.4129     0.1815     2.8607 H       
  47 H47           -4.5761    -1.5718     4.1728 H       
  48 H48           -5.4638    -1.1999     2.6754 H       
  49 H49           -4.4778    -2.6780     2.7817 H       
  50 H50           -7.8164    -2.2096     1.2279 H       
  51 H51           -8.4658    -3.7222     0.8923 H       
@<TRIPOS>BOND
   1    1    2 ar
   2    1    3 ar
   3    1   10 1
   4    2    7 1
   5    2    6 ar
   6    3    4 ar
   7    3   29 1
   8    4    5 ar
   9    4   33 1
  10    5    6 ar
  11    5   34 1
  12    6   35 1
  13    7    8 2
  14    8    9 1
  15    8   17 1
  16    9   10 am
  17    9   11 1
  18   10   21 2
  19   11   12 ar
  20   11   13 ar
  21   12   16 ar
  22   12   36 1
  23   13   14 ar
  24   13   37 1
  25   14   15 ar
  26   14   38 1
  27   15   16 ar
  28   15   39 1
  29   16   40 1
  30   17   18 1
  31   17   30 1
  32   17   41 1
  33   18   19 1
  34   18   42 1
  35   19   20 ar
  36   19   22 ar
  37   20   25 ar
  38   22   23 ar
  39   22   26 1
  40   23   24 ar
  41   23   28 1
  42   24   25 ar
  43   25   32 1
  44   26   27 2
  45   27   28 1
  46   27   43 1
  47   28   44 1
  48   30   31 1
  49   30   45 1
  50   30   46 1
  51   31   47 1
  52   31   48 1
  53   31   49 1
  54   32   50 1
  55   32   51 1

#	End of record

