#	Name: ASD02030538
#	Creating user name:	WinNT
#	Creation time:	15. 06. 2019 20:15

#	Modifying user name:	WinNT
#	Modification time:	15. 06. 2019 20:15

#	Program:	/corina/corina34_cracker 3.40 0067  02.08.2006

@<TRIPOS>MOLECULE
ASD02030538
  61   65    0    0    0
SMALL
NO_CHARGES


@<TRIPOS>ATOM
   1 N1            -0.2950     0.5278    -1.3226 N.am    
   2 C2            -0.5383    -0.9108    -1.1463 C.3     
   3 C3            -1.0062    -1.1558     0.2936 C.3     
   4 N4            -2.0888    -0.2113     0.6027 N.am    
   5 C5            -1.8455     1.2273     0.4264 C.3     
   6 C6            -1.3758     1.4727    -1.0082 C.3     
   7 C7             0.8997     0.9730    -1.7596 C.2     
   8 C8             2.0212     0.0263    -1.9376 C.2     
   9 N9             3.2640     0.3451    -2.2284 N.2     
  10 N10            1.9519    -1.3129    -1.8250 N.2     
  11 C11            3.1508    -1.7850    -2.0538 C.2     
  12 N12            3.9610    -0.7361    -2.3045 N.pl3   
  13 O13            1.0552     2.1529    -2.0073 O.2     
  14 C14           -3.2835    -0.6564     1.0397 C.2     
  15 C15           -3.5267    -2.1116     1.1778 C.ar    
  16 O16           -4.1613     0.1356     1.3205 O.2     
  17 C17           -0.8608     2.9072    -1.1416 C.3     
  18 C18           -2.5404     1.2495    -1.9750 C.3     
  19 C19            5.3292    -0.8097    -2.5986 C.ar    
  20 C20            6.0524     0.3507    -2.8382 C.ar    
  21 C21            7.4021     0.2746    -3.1276 C.ar    
  22 C22            8.0314    -0.9567    -3.1788 C.ar    
  23 C23            7.3126    -2.1138    -2.9404 C.ar    
  24 C24            5.9654    -2.0433    -2.6453 C.ar    
  25 N25           -2.5010    -2.9350     1.3474 N.ar    
  26 C26           -2.6760    -4.2418     1.4748 C.ar    
  27 C27           -3.9588    -4.7965     1.4337 C.ar    
  28 C28           -5.0497    -3.9642     1.2580 C.ar    
  29 C29           -4.8309    -2.5998     1.1336 C.ar    
  30 C30           -1.5028    -5.1230     1.6619 C.2     
  31 C31           -0.2182    -4.7217     1.8992 C.2     
  32 C32            0.5728    -5.8647     2.0123 C.2     
  33 N33           -0.1887    -6.9174     1.8521 N.2     
  34 N34           -1.5037    -6.4861     1.6353 N.pl3   
  35 Cl35           8.3080     1.7249    -3.4274 Cl      
  36 C36           -2.6688    -7.3453     1.4102 C.3     
  37 H37           -1.3099    -1.2394    -1.8426 H       
  38 H38            0.3833    -1.4629    -1.3305 H       
  39 H39           -1.3734    -2.1775     0.3900 H       
  40 H40           -0.1748    -0.9969     0.9804 H       
  41 H41           -2.7671     1.7795     0.6106 H       
  42 H42           -1.0739     1.5559     1.1227 H       
  43 H43            3.4399    -2.8255    -2.0409 H       
  44 H44            0.0886     3.0029    -0.6146 H       
  45 H45           -0.7169     3.1451    -2.1955 H       
  46 H46           -1.5871     3.5957    -0.7096 H       
  47 H47           -3.3489     1.9403    -1.7356 H       
  48 H48           -2.2032     1.4250    -2.9966 H       
  49 H49           -2.8988     0.2244    -1.8817 H       
  50 H50            5.5611     1.3117    -2.7989 H       
  51 H51            9.0857    -1.0142    -3.4057 H       
  52 H52            7.8063    -3.0735    -2.9814 H       
  53 H53            5.4050    -2.9476    -2.4589 H       
  54 H54           -4.0964    -5.8626     1.5377 H       
  55 H55           -6.0508    -4.3677     1.2223 H       
  56 H56           -5.6621    -1.9243     0.9953 H       
  57 H57            0.1237    -3.7008     1.9839 H       
  58 H58            1.6363    -5.8789     2.1999 H       
  59 H59           -3.2726    -7.3834     2.3168 H       
  60 H60           -3.2658    -6.9410     0.5927 H       
  61 H61           -2.3347    -8.3506     1.1536 H       
@<TRIPOS>BOND
   1    1    2 1
   2    1    7 am
   3    1    6 1
   4    2    3 1
   5    2   37 1
   6    2   38 1
   7    3    4 1
   8    3   39 1
   9    3   40 1
  10    4    5 1
  11    4   14 am
  12    5    6 1
  13    5   41 1
  14    5   42 1
  15    6   17 1
  16    6   18 1
  17    7    8 1
  18    7   13 2
  19    8    9 2
  20    8   10 1
  21    9   12 1
  22   10   11 2
  23   11   12 1
  24   11   43 1
  25   12   19 1
  26   14   15 1
  27   14   16 2
  28   15   25 ar
  29   15   29 ar
  30   17   44 1
  31   17   45 1
  32   17   46 1
  33   18   47 1
  34   18   48 1
  35   18   49 1
  36   19   20 ar
  37   19   24 ar
  38   20   21 ar
  39   20   50 1
  40   21   22 ar
  41   21   35 1
  42   22   23 ar
  43   22   51 1
  44   23   24 ar
  45   23   52 1
  46   24   53 1
  47   25   26 ar
  48   26   27 ar
  49   26   30 1
  50   27   28 ar
  51   27   54 1
  52   28   29 ar
  53   28   55 1
  54   29   56 1
  55   30   31 2
  56   30   34 1
  57   31   32 1
  58   31   57 1
  59   32   33 2
  60   32   58 1
  61   33   34 1
  62   34   36 1
  63   36   59 1
  64   36   60 1
  65   36   61 1

#	End of record

