#	Name: ASD01900690
#	Creating user name:	WinNT
#	Creation time:	15. 06. 2019 19:52

#	Modifying user name:	WinNT
#	Modification time:	15. 06. 2019 19:52

#	Program:	/corina/corina34_cracker 3.40 0067  02.08.2006

@<TRIPOS>MOLECULE
ASD01900690
  37   40    0    0    0
SMALL
NO_CHARGES


@<TRIPOS>ATOM
   1 C1             0.0233     1.5832     0.2158 C.ar    
   2 C2            -0.0338     0.1994     0.2267 C.ar    
   3 C3             1.1203    -0.5541     0.1497 C.ar    
   4 C4             2.3552     0.0747     0.0600 C.ar    
   5 C5             2.4083     1.4753     0.0537 C.ar    
   6 O6             3.4907    -0.6502    -0.0276 O.3     
   7 C7             4.6993    -0.0996     0.1803 C.2     
   8 C8             4.9041     1.2386     0.1861 C.2     
   9 C9             3.7424     2.1222    -0.0294 C.2     
  10 C10            5.8523    -0.9923     0.4126 C.ar    
  11 N11            6.8683    -0.9875    -0.4551 N.ar    
  12 C12            7.9225    -1.7513    -0.3128 C.ar    
  13 C13            8.0223    -2.6236     0.7854 C.ar    
  14 C14            6.9632    -2.6590     1.7312 C.ar    
  15 C15            5.8604    -1.8135     1.5293 C.ar    
  16 C16            1.2426     2.2259     0.1294 C.ar    
  17 C17            6.2809     1.8101     0.4071 C.3     
  18 C18            9.1357    -3.4568     0.9706 C.ar    
  19 C19            9.1838    -4.2846     2.0516 C.ar    
  20 C20            8.1441    -4.3191     2.9788 C.ar    
  21 C21            7.0473    -3.5245     2.8327 C.ar    
  22 N22            3.8796     3.4016    -0.2793 N.2     
  23 O23            2.7489     4.1808    -0.6246 O.3     
  24 H24           -0.8878     2.1606     0.2704 H       
  25 H25           -0.9912    -0.2953     0.2964 H       
  26 H26            1.0629    -1.6325     0.1596 H       
  27 H27            8.7181    -1.7113    -1.0420 H       
  28 H28            5.0336    -1.8089     2.2241 H       
  29 H29            1.2891     3.3049     0.1211 H       
  30 H30            6.8200     1.8357    -0.5400 H       
  31 H31            6.1950     2.8217     0.8037 H       
  32 H32            6.8236     1.1862     1.1173 H       
  33 H33            9.9494    -3.4424     0.2605 H       
  34 H34           10.0419    -4.9251     2.1920 H       
  35 H35            8.2089    -4.9858     3.8260 H       
  36 H36            6.2485    -3.5606     3.5587 H       
  37 H37            2.9489     5.1122    -0.7906 H       
@<TRIPOS>BOND
   1    1    2 ar
   2    1   16 ar
   3    1   24 1
   4    2    3 ar
   5    2   25 1
   6    3    4 ar
   7    3   26 1
   8    4    5 ar
   9    4    6 1
  10    5   16 ar
  11    5    9 1
  12    6    7 1
  13    7    8 2
  14    7   10 1
  15    8    9 1
  16    8   17 1
  17    9   22 2
  18   10   11 ar
  19   10   15 ar
  20   11   12 ar
  21   12   13 ar
  22   12   27 1
  23   13   14 ar
  24   13   18 ar
  25   14   15 ar
  26   14   21 ar
  27   15   28 1
  28   16   29 1
  29   17   30 1
  30   17   31 1
  31   17   32 1
  32   18   19 ar
  33   18   33 1
  34   19   20 ar
  35   19   34 1
  36   20   21 ar
  37   20   35 1
  38   21   36 1
  39   22   23 1
  40   23   37 1

#	End of record

