#	Name: ASD02030543
#	Creating user name:	WinNT
#	Creation time:	15. 06. 2019 20:15

#	Modifying user name:	WinNT
#	Modification time:	15. 06. 2019 20:15

#	Program:	/corina/corina34_cracker 3.40 0067  02.08.2006

@<TRIPOS>MOLECULE
ASD02030543
  61   65    0    0    0
SMALL
NO_CHARGES


@<TRIPOS>ATOM
   1 N1            -0.1415     1.4437    -0.8336 N.am    
   2 C2            -0.1617    -0.0232    -0.7458 C.3     
   3 C3            -0.9372    -0.4282     0.5139 C.3     
   4 N4            -2.2135     0.3002     0.5341 N.am    
   5 C5            -2.1933     1.7671     0.4464 C.3     
   6 C6            -1.4175     2.1724    -0.8077 C.3     
   7 C7             1.0266     2.1090    -0.9304 C.2     
   8 C8             2.3059     1.3781    -0.8091 C.2     
   9 N9             3.5038     1.9191    -0.7533 N.2     
  10 N10            2.4498     0.0424    -0.7304 N.2     
  11 C11            3.7312    -0.2056    -0.6336 C.2     
  12 N12            4.3778     0.9780    -0.6492 N.pl3   
  13 O13            1.0282     3.3101    -1.1174 O.2     
  14 C14           -3.3815    -0.3651     0.6310 C.2     
  15 C15           -3.3934    -1.8443     0.6189 C.ar    
  16 O16           -4.4252     0.2502     0.7282 O.2     
  17 C17           -1.1499     3.6786    -0.7816 C.3     
  18 C18           -2.2307     1.8133    -2.0530 C.3     
  19 C19            5.7656     1.1545    -0.5665 C.ar    
  20 C20            6.3073     2.4327    -0.5937 C.ar    
  21 C21            7.6754     2.6033    -0.5121 C.ar    
  22 C22            8.5056     1.5027    -0.4040 C.ar    
  23 C23            7.9692     0.2285    -0.3767 C.ar    
  24 C24            6.6015     0.0517    -0.4516 C.ar    
  25 N25           -2.3079    -2.5093     1.0267 N.ar    
  26 C26           -2.2472    -3.8217     1.0434 C.ar    
  27 C27           -3.3567    -4.5881     0.6197 C.ar    
  28 C28           -4.5250    -3.9140     0.1807 C.ar    
  29 C29           -4.5290    -2.5072     0.1915 C.ar    
  30 O30           -1.1191    -4.4414     1.4670 O.3     
  31 C31           -0.0361    -3.6058     1.8805 C.3     
  32 C32           -3.3320    -5.9883     0.6218 C.ar    
  33 C33           -4.4288    -6.6817     0.2029 C.ar    
  34 C34           -5.5758    -6.0200    -0.2280 C.ar    
  35 C35           -5.6354    -4.6583    -0.2431 C.ar    
  36 H36           -0.6537    -0.4357    -1.6267 H       
  37 H37            0.8592    -0.4001    -0.6838 H       
  38 H38           -1.1286    -1.5011     0.4966 H       
  39 H39           -0.3557    -0.1720     1.3996 H       
  40 H40           -3.2142     2.1440     0.3844 H       
  41 H41           -1.7012     2.1795     1.3272 H       
  42 H42            4.1878    -1.1810    -0.5526 H       
  43 H43           -0.3419     3.8920    -0.0818 H       
  44 H44           -0.8651     4.0143    -1.7787 H       
  45 H45           -2.0520     4.2025    -0.4657 H       
  46 H46           -3.1834     2.3424    -2.0298 H       
  47 H47           -1.6758     2.1031    -2.9453 H       
  48 H48           -2.4122     0.7387    -2.0710 H       
  49 H49            5.6594     3.2926    -0.6788 H       
  50 H50            8.0973     3.5973    -0.5332 H       
  51 H51            9.5752     1.6386    -0.3410 H       
  52 H52            8.6202    -0.6291    -0.2921 H       
  53 H53            6.1831    -0.9438    -0.4300 H       
  54 H54           -5.3986    -1.9561    -0.1348 H       
  55 H55            0.8026    -4.2270     2.1946 H       
  56 H56            0.2723    -2.9725     1.0486 H       
  57 H57           -0.3573    -2.9805     2.7135 H       
  58 H58           -2.4495    -6.5156     0.9529 H       
  59 H59           -4.4075    -7.7615     0.2050 H       
  60 H60           -6.4304    -6.5939    -0.5546 H       
  61 H61           -6.5308    -4.1565    -0.5792 H       
@<TRIPOS>BOND
   1    1    2 1
   2    1    7 am
   3    1    6 1
   4    2    3 1
   5    2   36 1
   6    2   37 1
   7    3    4 1
   8    3   38 1
   9    3   39 1
  10    4    5 1
  11    4   14 am
  12    5    6 1
  13    5   40 1
  14    5   41 1
  15    6   17 1
  16    6   18 1
  17    7    8 1
  18    7   13 2
  19    8    9 2
  20    8   10 1
  21    9   12 1
  22   10   11 2
  23   11   12 1
  24   11   42 1
  25   12   19 1
  26   14   15 1
  27   14   16 2
  28   15   25 ar
  29   15   29 ar
  30   17   43 1
  31   17   44 1
  32   17   45 1
  33   18   46 1
  34   18   47 1
  35   18   48 1
  36   19   20 ar
  37   19   24 ar
  38   20   21 ar
  39   20   49 1
  40   21   22 ar
  41   21   50 1
  42   22   23 ar
  43   22   51 1
  44   23   24 ar
  45   23   52 1
  46   24   53 1
  47   25   26 ar
  48   26   27 ar
  49   26   30 1
  50   27   28 ar
  51   27   32 ar
  52   28   29 ar
  53   28   35 ar
  54   29   54 1
  55   30   31 1
  56   31   55 1
  57   31   56 1
  58   31   57 1
  59   32   33 ar
  60   32   58 1
  61   33   34 ar
  62   33   59 1
  63   34   35 ar
  64   34   60 1
  65   35   61 1

#	End of record

