#	Name: ASD04590217
#	Creating user name:	WinNT
#	Creation time:	15. 06. 2019 20:50

#	Modifying user name:	WinNT
#	Modification time:	15. 06. 2019 20:50

#	Program:	/corina/corina34_cracker 3.40 0067  02.08.2006

@<TRIPOS>MOLECULE
ASD04590217
  50   53    0    0    0
SMALL
NO_CHARGES


@<TRIPOS>ATOM
   1 N1            -0.0153     1.2802     0.0091 N.pl3   
   2 N2             0.0021    -0.0041     0.0020 N.2     
   3 C3             1.2455    -0.4440    -0.0122 C.2     
   4 C4             2.0903     0.6961    -0.0142 C.2     
   5 C5             1.2523     1.7667    -0.0004 C.2     
   6 C6             1.6765    -1.8547    -0.0235 C.2     
   7 N7             0.7571    -2.8402    -0.0200 N.am    
   8 N8             3.4930     0.7146    -0.0275 N.am    
   9 O9             2.8611    -2.1284    -0.0359 O.2     
  10 C10            4.1514     1.8906    -0.0274 C.2     
  11 C11            5.6264     1.9101    -0.0414 C.ar    
  12 O12            3.5296     2.9356    -0.0159 O.2     
  13 C13            1.1851    -4.2412    -0.0312 C.3     
  14 C14            1.8482    -6.1840     1.3900 C.3     
  15 C15            1.4606    -4.7036     1.4023 C.3     
  16 C16            6.3414     1.9129     1.1612 C.ar    
  17 C17            7.7233     1.9313     1.1389 C.ar    
  18 C18            8.3992     1.9473    -0.0677 C.ar    
  19 C19            7.7004     1.9452    -1.2612 C.ar    
  20 C20            6.3184     1.9201    -1.2574 C.ar    
  21 F21            5.6831     1.8982     2.3408 F       
  22 F22            5.6376     1.9176    -2.4243 F       
  23 C23            0.0781    -5.1096    -0.6354 C.3     
  24 C24            0.5058    -6.5783    -0.5886 C.3     
  25 N25            0.7567    -6.9722     0.8036 N.3     
  26 C26            1.0190    -8.3281     0.8959 C.ar    
  27 N27            1.2691    -8.8590     2.0837 N.ar    
  28 C28            1.5235   -10.1513     2.2067 C.ar    
  29 C29            1.5262   -10.9506     1.0743 C.ar    
  30 C30            1.2606   -10.3626    -0.1524 C.ar    
  31 N31            1.0087    -9.0651    -0.2051 N.ar    
  32 H32           -0.8184     1.8242     0.0160 H       
  33 H33            1.5405     2.8076     0.0024 H       
  34 H34           -0.1879    -2.6218    -0.0102 H       
  35 H35            3.9890    -0.1189    -0.0367 H       
  36 H36            2.0921    -4.3403    -0.6276 H       
  37 H37            2.7524    -6.3178     0.7962 H       
  38 H38            2.0311    -6.5200     2.4107 H       
  39 H39            2.2772    -4.1171     1.8232 H       
  40 H40            0.5642    -4.5671     2.0073 H       
  41 H41            8.2768     1.9335     2.0662 H       
  42 H42            9.4791     1.9620    -0.0779 H       
  43 H43            8.2361     1.9585    -2.1989 H       
  44 H44           -0.8400    -4.9795    -0.0625 H       
  45 H45           -0.0930    -4.8132    -1.6703 H       
  46 H46           -0.2863    -7.2006    -1.0050 H       
  47 H47            1.4163    -6.7102    -1.1731 H       
  48 H48            1.7270   -10.5783     3.1776 H       
  49 H49            1.7312   -12.0085     1.1463 H       
  50 H50            1.2555   -10.9574    -1.0539 H       
@<TRIPOS>BOND
   1    1    2 1
   2    1    5 1
   3    1   32 1
   4    2    3 2
   5    3    4 1
   6    3    6 1
   7    4    5 2
   8    4    8 1
   9    5   33 1
  10    6    7 am
  11    6    9 2
  12    7   13 1
  13    7   34 1
  14    8   10 am
  15    8   35 1
  16   10   11 1
  17   10   12 2
  18   11   16 ar
  19   11   20 ar
  20   13   23 1
  21   13   15 1
  22   13   36 1
  23   14   15 1
  24   14   25 1
  25   14   37 1
  26   14   38 1
  27   15   39 1
  28   15   40 1
  29   16   17 ar
  30   16   21 1
  31   17   18 ar
  32   17   41 1
  33   18   19 ar
  34   18   42 1
  35   19   20 ar
  36   19   43 1
  37   20   22 1
  38   23   24 1
  39   23   44 1
  40   23   45 1
  41   24   25 1
  42   24   46 1
  43   24   47 1
  44   25   26 1
  45   26   27 ar
  46   26   31 ar
  47   27   28 ar
  48   28   29 ar
  49   28   48 1
  50   29   30 ar
  51   29   49 1
  52   30   31 ar
  53   30   50 1

#	End of record

