#	Name: ASD02560007
#	Creating user name:	WinNT
#	Creation time:	15. 06. 2019 20:24

#	Modifying user name:	WinNT
#	Modification time:	15. 06. 2019 20:24

#	Program:	/corina/corina34_cracker 3.40 0067  02.08.2006

@<TRIPOS>MOLECULE
ASD02560007
  54   55    0    0    0
SMALL
NO_CHARGES


@<TRIPOS>ATOM
   1 N1             0.6996     1.6378     0.6916 N.am    
   2 C2             0.3526     0.3782     0.3683 C.2     
   3 N3             1.2871    -0.5384     0.0573 N.am    
   4 C4             2.6152    -0.2092     0.0628 C.2     
   5 C5             2.9913     1.0473     0.3834 C.2     
   6 C6             1.9978     2.0020     0.7087 C.2     
   7 O7             2.3126     3.1414     1.0011 O.2     
   8 O8            -0.8220     0.0641     0.3576 O.2     
   9 C9             4.4493     1.4284     0.3954 C.3     
  10 C10            4.8241     2.0535    -0.9498 C.3     
  11 C11            3.6533    -1.2442    -0.2867 C.3     
  12 C12            4.1125    -1.9393     0.9691 C.ar    
  13 C13            0.8789    -1.9018    -0.2900 C.3     
  14 O14            0.3085    -1.9091    -1.6002 O.3     
  15 C15            1.2734    -1.9080    -2.6542 C.3     
  16 C16            0.5646    -1.9160    -3.9841 C.2     
  17 C17            3.3658    -2.9753     1.4981 C.ar    
  18 C18            3.7870    -3.6128     2.6501 C.ar    
  19 C19            4.9551    -3.2145     3.2728 C.ar    
  20 C20            5.7023    -2.1790     2.7433 C.ar    
  21 C21            5.2833    -1.5444     1.5889 C.ar    
  22 C22            6.9755    -1.7445     3.4224 C.3     
  23 C23            2.9725    -4.7417     3.2274 C.3     
  24 C24            0.9770    -2.7096    -4.9414 C.2     
  25 C25            2.1339    -3.6445    -4.6991 C.3     
  26 C26            0.2946    -2.6876    -6.2848 C.3     
  27 H27            0.0128     2.2873     0.9093 H       
  28 H28            4.6302     2.1483     1.1936 H       
  29 H29            5.0560     0.5387     0.5642 H       
  30 H30            5.8787     2.3291    -0.9412 H       
  31 H31            4.6433     1.3336    -1.7480 H       
  32 H32            4.2174     2.9432    -1.1186 H       
  33 H33            3.2213    -1.9758    -0.9696 H       
  34 H34            4.5039    -0.7587    -0.7650 H       
  35 H35            1.7490    -2.5581    -0.2689 H       
  36 H36            0.1403    -2.2545     0.4298 H       
  37 H37            1.8934    -1.0147    -2.5783 H       
  38 H38            1.9021    -2.7946    -2.5722 H       
  39 H39           -0.2833    -1.2675    -4.1480 H       
  40 H40            2.4532    -3.2865     1.0116 H       
  41 H41            5.2838    -3.7121     4.1733 H       
  42 H42            5.8670    -0.7354     1.1751 H       
  43 H43            7.8141    -2.3128     3.0201 H       
  44 H44            7.1379    -0.6816     3.2439 H       
  45 H45            6.8953    -1.9248     4.4944 H       
  46 H46            3.3072    -5.6869     2.8000 H       
  47 H47            3.1014    -4.7664     4.3095 H       
  48 H48            1.9197    -4.5883     2.9903 H       
  49 H49            1.7702    -4.5586    -4.2300 H       
  50 H50            2.6093    -3.8880    -5.6492 H       
  51 H51            2.8589    -3.1630    -4.0429 H       
  52 H52           -0.5122    -1.9548    -6.2705 H       
  53 H53            1.0171    -2.4176    -7.0550 H       
  54 H54           -0.1148    -3.6745    -6.5006 H       
@<TRIPOS>BOND
   1    1    2 am
   2    1    6 am
   3    1   27 1
   4    2    3 am
   5    2    8 2
   6    3    4 1
   7    3   13 1
   8    4    5 2
   9    4   11 1
  10    5    6 1
  11    5    9 1
  12    6    7 2
  13    9   10 1
  14    9   28 1
  15    9   29 1
  16   10   30 1
  17   10   31 1
  18   10   32 1
  19   11   12 1
  20   11   33 1
  21   11   34 1
  22   12   17 ar
  23   12   21 ar
  24   13   14 1
  25   13   35 1
  26   13   36 1
  27   14   15 1
  28   15   16 1
  29   15   37 1
  30   15   38 1
  31   16   24 2
  32   16   39 1
  33   17   18 ar
  34   17   40 1
  35   18   19 ar
  36   18   23 1
  37   19   20 ar
  38   19   41 1
  39   20   21 ar
  40   20   22 1
  41   21   42 1
  42   22   43 1
  43   22   44 1
  44   22   45 1
  45   23   46 1
  46   23   47 1
  47   23   48 1
  48   24   25 1
  49   24   26 1
  50   25   49 1
  51   25   50 1
  52   25   51 1
  53   26   52 1
  54   26   53 1
  55   26   54 1

#	End of record

