#	Name: ASD01901492
#	Creating user name:	WinNT
#	Creation time:	15. 06. 2019 19:53

#	Modifying user name:	WinNT
#	Modification time:	15. 06. 2019 19:53

#	Program:	/corina/corina34_cracker 3.40 0067  02.08.2006

@<TRIPOS>MOLECULE
ASD01901492
  39   42    0    0    0
SMALL
NO_CHARGES


@<TRIPOS>ATOM
   1 C1             0.9177    -0.1601     1.0415 C.ar    
   2 C2             2.0996     0.5564     1.0302 C.ar    
   3 C3             2.3761     1.4233    -0.0148 C.ar    
   4 C4             1.4724     1.5759    -1.0501 C.ar    
   5 C5             0.2892     0.8649    -1.0481 C.ar    
   6 C6             0.0048    -0.0086    -0.0003 C.ar    
   7 C7            -1.2654    -0.7752     0.0057 C.2     
   8 N8            -2.3574    -2.8724    -0.0969 N.2     
   9 C9            -1.2445    -2.1826    -0.1008 C.2     
  10 N10           -2.4183    -0.1453     0.1162 N.2     
  11 N11           -3.6021    -0.8930     0.1197 N.pl3   
  12 C12           -3.5443    -2.2617     0.0088 C.2     
  13 C13           -4.9181    -0.5516     0.2165 C.2     
  14 C14           -5.6327    -1.6993     0.1639 C.2     
  15 N15           -4.7864    -2.7235     0.0369 N.2     
  16 C16           -7.1344    -1.8036     0.2353 C.3     
  17 O17           -7.6970    -0.4967     0.3680 O.3     
  18 C18           -9.0489    -0.4130     0.4462 C.ar    
  19 C19           -9.6546     0.8299     0.5761 C.ar    
  20 N20           -9.7776    -1.5157     0.3925 N.ar    
  21 C21          -11.0945    -1.4793     0.4649 C.ar    
  22 C22          -11.7630    -0.2787     0.6003 C.ar    
  23 C23          -11.0348     0.9015     0.6549 C.ar    
  24 C24            0.6198    -1.1076     2.1749 C.3     
  25 F25            2.9861     0.4116     2.0394 F       
  26 H26            3.3004     1.9819    -0.0205 H       
  27 H27            1.6926     2.2531    -1.8620 H       
  28 H28           -0.4155     0.9857    -1.8575 H       
  29 H29           -0.2988    -2.6968    -0.1871 H       
  30 H30           -5.3158     0.4475     0.3166 H       
  31 H31           -7.5099    -2.2700    -0.6755 H       
  32 H32           -7.4160    -2.4095     1.0965 H       
  33 H33           -9.0569     1.7285     0.6156 H       
  34 H34          -11.6567    -2.4002     0.4172 H       
  35 H35          -12.8412    -0.2579     0.6589 H       
  36 H36          -11.5335     1.8540     0.7567 H       
  37 H37            0.9249    -2.1160     1.8952 H       
  38 H38            1.1685    -0.7953     3.0634 H       
  39 H39           -0.4496    -1.0969     2.3858 H       
@<TRIPOS>BOND
   1    1    6 ar
   2    1    2 ar
   3    1   24 1
   4    2    3 ar
   5    2   25 1
   6    3    4 ar
   7    3   26 1
   8    4    5 ar
   9    4   27 1
  10    5    6 ar
  11    5   28 1
  12    6    7 1
  13    7   10 2
  14    7    9 1
  15    8    9 2
  16    8   12 1
  17    9   29 1
  18   10   11 1
  19   11   13 1
  20   11   12 1
  21   12   15 2
  22   13   14 2
  23   13   30 1
  24   14   15 1
  25   14   16 1
  26   16   17 1
  27   16   31 1
  28   16   32 1
  29   17   18 1
  30   18   19 ar
  31   18   20 ar
  32   19   23 ar
  33   19   33 1
  34   20   21 ar
  35   21   22 ar
  36   21   34 1
  37   22   23 ar
  38   22   35 1
  39   23   36 1
  40   24   37 1
  41   24   38 1
  42   24   39 1

#	End of record

