#	Name: ASD01914427
#	Creating user name:	WinNT
#	Creation time:	15. 06. 2019 20:03

#	Modifying user name:	WinNT
#	Modification time:	15. 06. 2019 20:03

#	Program:	/corina/corina34_cracker 3.40 0067  02.08.2006

@<TRIPOS>MOLECULE
ASD01914427
  58   62    0    0    0
SMALL
NO_CHARGES


@<TRIPOS>ATOM
   1 C1            -0.0167     1.3770     0.0096 C.ar    
   2 C2             0.0021    -0.0041     0.0020 C.ar    
   3 C3             1.2144    -0.6804    -0.0132 C.ar    
   4 C4             2.4046     0.0342    -0.0208 C.ar    
   5 C5             2.3796     1.4151    -0.0132 C.ar    
   6 C6             1.1705     2.0860     0.0021 C.ar    
   7 N7             1.2366    -2.0822    -0.0205 N.pl3   
   8 C8             0.5486    -2.9098     0.8267 C.2     
   9 C9             0.8594    -4.1824     0.4671 C.2     
  10 N10            1.7154    -4.1213    -0.5732 N.2     
  11 C11            1.9402    -2.8725    -0.8732 C.2     
  12 C12            0.3482    -5.4201     1.1060 C.ar    
  13 C13            0.7517    -6.6677     0.6336 C.ar    
  14 C14            0.2751    -7.8165     1.2299 C.ar    
  15 C15           -0.6058    -7.7310     2.2992 C.ar    
  16 C16           -1.0099    -6.4899     2.7717 C.ar    
  17 C17           -0.5319    -5.3374     2.1835 C.ar    
  18 C18            2.8418    -2.3851    -1.9780 C.3     
  19 O19            0.8631    -2.5108    -3.2582 O.2     
  20 C20            2.0459    -2.2428    -3.2498 C.2     
  21 N21            2.6486    -1.8177    -4.3779 N.am    
  22 C22            1.8248    -1.7017    -5.5718 C.3     
  23 C23            1.6422    -0.2163    -5.9255 C.3     
  24 C24            2.9470     0.2667    -6.5399 C.2     
  25 C25            4.1030     0.3752    -5.8926 C.2     
  26 C26            4.2878     0.0013    -4.4228 C.3     
  27 C27            4.0674    -1.5074    -4.3001 C.3     
  28 S28            3.1708     0.7697    -8.2100 S.3     
  29 C29            4.8171     1.1042    -7.8920 C.2     
  30 N30            5.0917     0.8394    -6.6554 N.2     
  31 N31            5.7240     1.5882    -8.8218 N.pl3   
  32 O32           -1.0741    -8.8647     2.8844 O.3     
  33 C33           -1.9774    -8.7039     3.9799 C.3     
  34 H34           -0.9595     1.9037     0.0169 H       
  35 H35           -0.9255    -0.5573     0.0083 H       
  36 H36            3.3492    -0.4893    -0.0323 H       
  37 H37            3.3052     1.9715    -0.0190 H       
  38 H38            1.1534     3.1658     0.0080 H       
  39 H39           -0.1124    -2.6090     1.6260 H       
  40 H40            1.4365    -6.7349    -0.1988 H       
  41 H41            0.5874    -8.7835     0.8642 H       
  42 H42           -1.6959    -6.4266     3.6034 H       
  43 H43           -0.8466    -4.3721     2.5516 H       
  44 H44            3.2633    -1.4183    -1.7031 H       
  45 H45            3.6479    -3.1024    -2.1322 H       
  46 H46            2.3117    -2.2154    -6.4007 H       
  47 H47            0.8503    -2.1534    -5.3863 H       
  48 H48            0.8301    -0.1033    -6.6436 H       
  49 H49            1.4231     0.3554    -5.0237 H       
  50 H50            5.2972     0.2563    -4.1000 H       
  51 H51            3.5576     0.5312    -3.8112 H       
  52 H52            4.4610    -1.8539    -3.3445 H       
  53 H53            4.5894    -2.0163    -5.1103 H       
  54 H54            5.4388     1.7623    -9.7324 H       
  55 H55            6.6439     1.7528    -8.5618 H       
  56 H56           -1.4867    -8.1443     4.7763 H       
  57 H57           -2.8611    -8.1605     3.6454 H       
  58 H58           -2.2735    -9.6840     4.3537 H       
@<TRIPOS>BOND
   1    1    2 ar
   2    1    6 ar
   3    1   34 1
   4    2    3 ar
   5    2   35 1
   6    3    4 ar
   7    3    7 1
   8    4    5 ar
   9    4   36 1
  10    5    6 ar
  11    5   37 1
  12    6   38 1
  13    7    8 1
  14    7   11 1
  15    8    9 2
  16    8   39 1
  17    9   10 1
  18    9   12 1
  19   10   11 2
  20   11   18 1
  21   12   13 ar
  22   12   17 ar
  23   13   14 ar
  24   13   40 1
  25   14   15 ar
  26   14   41 1
  27   15   16 ar
  28   15   32 1
  29   16   17 ar
  30   16   42 1
  31   17   43 1
  32   18   20 1
  33   18   44 1
  34   18   45 1
  35   19   20 2
  36   20   21 am
  37   21   22 1
  38   21   27 1
  39   22   23 1
  40   22   46 1
  41   22   47 1
  42   23   24 1
  43   23   48 1
  44   23   49 1
  45   24   25 2
  46   24   28 1
  47   25   26 1
  48   25   30 1
  49   26   27 1
  50   26   50 1
  51   26   51 1
  52   27   52 1
  53   27   53 1
  54   28   29 1
  55   29   30 2
  56   29   31 1
  57   31   54 1
  58   31   55 1
  59   32   33 1
  60   33   56 1
  61   33   57 1
  62   33   58 1

#	End of record

