#	Name: ASD01940238
#	Creating user name:	WinNT
#	Creation time:	15. 06. 2019 20:12

#	Modifying user name:	WinNT
#	Modification time:	15. 06. 2019 20:12

#	Program:	/corina/corina34_cracker 3.40 0067  02.08.2006

@<TRIPOS>MOLECULE
ASD01940238
  32   33    0    0    0
SMALL
NO_CHARGES


@<TRIPOS>ATOM
   1 F1             1.9010     1.6017     2.2853 F       
   2 C2             1.0625     2.1527     1.3806 C.ar    
   3 C3             1.3874     2.1345     0.0308 C.ar    
   4 C4             0.5189     2.7040    -0.8990 C.ar    
   5 C5            -0.6653     3.2859    -0.4719 C.ar    
   6 C6            -0.9835     3.3015     0.8736 C.ar    
   7 C7            -0.1252     2.7316     1.7984 C.ar    
   8 N8             2.5858     1.5455    -0.3958 N.pl3   
   9 N9             0.8419     2.6889    -2.2624 N.am    
  10 C10            2.6328     0.1757    -0.6685 C.ar    
  11 C11            1.4776    -0.5906    -0.5848 C.ar    
  12 C12            1.5273    -1.9445    -0.8549 C.ar    
  13 C13            2.7257    -2.5376    -1.2084 C.ar    
  14 C14            3.8790    -1.7777    -1.2928 C.ar    
  15 C15            3.8353    -0.4221    -1.0296 C.ar    
  16 Cl16           5.2824     0.5310    -1.1356 Cl      
  17 F17           -0.4438     2.7443     3.1113 F       
  18 S18            0.4251     3.9693    -3.2263 S.o2    
  19 O19            0.9909     3.6545    -4.4912 O.2     
  20 O20           -0.9813     4.0885    -3.0620 O.2     
  21 I21            2.7951    -4.5913    -1.6162 I       
  22 C22            1.2753     5.3898    -2.4846 C.3     
  23 F23            0.9917     6.5420    -3.2257 F       
  24 H24           -1.3395     3.7276    -1.1909 H       
  25 H25           -1.9061     3.7556     1.2036 H       
  26 H26            3.3824     2.0888    -0.5017 H       
  27 H27            1.3096     1.9284    -2.6417 H       
  28 H28            0.5414    -0.1285    -0.3086 H       
  29 H29            0.6291    -2.5407    -0.7896 H       
  30 H30            4.8133    -2.2438    -1.5688 H       
  31 H31            0.9316     5.5238    -1.4589 H       
  32 H32            2.3506     5.2115    -2.4871 H       
@<TRIPOS>BOND
   1    1    2 1
   2    2    3 ar
   3    2    7 ar
   4    3    4 ar
   5    3    8 1
   6    4    5 ar
   7    4    9 1
   8    5    6 ar
   9    5   24 1
  10    6    7 ar
  11    6   25 1
  12    7   17 1
  13    8   10 1
  14    8   26 1
  15    9   18 am
  16    9   27 1
  17   10   11 ar
  18   10   15 ar
  19   11   12 ar
  20   11   28 1
  21   12   13 ar
  22   12   29 1
  23   13   14 ar
  24   13   21 1
  25   14   15 ar
  26   14   30 1
  27   15   16 1
  28   18   19 2
  29   18   20 2
  30   18   22 1
  31   22   23 1
  32   22   31 1
  33   22   32 1

#	End of record

