#	Name: ASD02508313
#	Creating user name:	WinNT
#	Creation time:	15. 06. 2019 20:24

#	Modifying user name:	WinNT
#	Modification time:	15. 06. 2019 20:24

#	Program:	/corina/corina34_cracker 3.40 0067  02.08.2006

@<TRIPOS>MOLECULE
ASD02508313
  56   60    0    0    0
SMALL
NO_CHARGES


@<TRIPOS>ATOM
   1 C1            -0.0167     1.3818     0.0096 C.ar    
   2 C2             0.0021    -0.0041     0.0020 C.ar    
   3 C3            -1.2098    -0.6984     0.0103 C.ar    
   4 C4            -2.4045    -0.0112     0.0258 C.ar    
   5 C5            -2.4121     1.3718     0.0333 C.ar    
   6 C6            -1.2168     2.0662     0.0299 C.ar    
   7 S7            -3.9416     2.2465     0.0530 S.o2    
   8 O8            -3.6748     3.5334    -0.4871 O.2     
   9 O9            -4.9156     1.3637    -0.4866 O.2     
  10 C10           -4.3778     2.4963     1.7418 C.ar    
  11 C11           -3.9540     3.6337     2.4027 C.ar    
  12 C12           -4.2953     3.8326     3.7322 C.ar    
  13 C13           -5.0673     2.8870     4.3965 C.ar    
  14 C14           -5.4886     1.7473     3.7276 C.ar    
  15 C15           -5.1480     1.5570     2.4018 C.ar    
  16 O16           -3.8641     4.9538     4.3722 O.3     
  17 C17           -4.5362     5.2994     5.5882 C.3     
  18 C18           -4.6678     4.0311     6.4422 C.3     
  19 O19           -5.4202     3.0662     5.6987 O.3     
  20 C20            1.4103     1.8820    -0.0013 C.3     
  21 C21            2.2667     0.6053    -0.0163 C.3     
  22 N22            1.3062    -0.5013    -0.0131 N.am    
  23 S23            1.7091    -2.1075    -0.0251 S.o2    
  24 O24            0.5890    -2.7453    -0.6232 O.2     
  25 O25            2.9885    -2.1433    -0.6424 O.2     
  26 C26            1.8355    -2.5556     1.7282 C.3     
  27 C27            2.2020    -4.0123     1.8492 C.ar    
  28 C28            3.5312    -4.3891     1.8955 C.ar    
  29 C29            3.1268     0.5579    -1.2808 C.3     
  30 C30            1.2089    -4.9713     1.9197 C.ar    
  31 C31            1.5451    -6.3075     2.0307 C.ar    
  32 C32            2.8743    -6.6848     2.0708 C.ar    
  33 C33            3.8674    -5.7253     2.0065 C.ar    
  34 H34           -1.2108    -1.7784     0.0041 H       
  35 H35           -3.3378    -0.5545     0.0318 H       
  36 H36           -1.2211     3.1461     0.0358 H       
  37 H37           -3.3562     4.3682     1.8834 H       
  38 H38           -6.0866     1.0098     4.2422 H       
  39 H39           -5.4771     0.6688     1.8829 H       
  40 H40           -3.9565     6.0479     6.1286 H       
  41 H41           -5.5265     5.6942     5.3614 H       
  42 H42           -3.6776     3.6333     6.6645 H       
  43 H43           -5.1873     4.2658     7.3712 H       
  44 H44            1.5981     2.4765    -0.8954 H       
  45 H45            1.6152     2.4669     0.8954 H       
  46 H46            2.8966     0.5619     0.8722 H       
  47 H47            2.6042    -1.9467     2.2042 H       
  48 H48            0.8778    -2.3799     2.2180 H       
  49 H49            4.3070    -3.6395     1.8445 H       
  50 H50            3.8018     1.4137    -1.2934 H       
  51 H51            3.7086    -0.3639    -1.2902 H       
  52 H52            2.4829     0.5901    -2.1597 H       
  53 H53            0.1704    -4.6765     1.8884 H       
  54 H54            0.7692    -7.0567     2.0865 H       
  55 H55            3.1370    -7.7288     2.1580 H       
  56 H56            4.9059    -6.0201     2.0378 H       
@<TRIPOS>BOND
   1    1    2 ar
   2    1   20 1
   3    1    6 ar
   4    2    3 ar
   5    2   22 1
   6    3    4 ar
   7    3   34 1
   8    4    5 ar
   9    4   35 1
  10    5    6 ar
  11    5    7 1
  12    6   36 1
  13    7    8 2
  14    7    9 2
  15    7   10 1
  16   10   11 ar
  17   10   15 ar
  18   11   12 ar
  19   11   37 1
  20   12   13 ar
  21   12   16 1
  22   13   14 ar
  23   13   19 1
  24   14   15 ar
  25   14   38 1
  26   15   39 1
  27   16   17 1
  28   17   18 1
  29   17   40 1
  30   17   41 1
  31   18   19 1
  32   18   42 1
  33   18   43 1
  34   20   21 1
  35   20   44 1
  36   20   45 1
  37   21   22 1
  38   21   29 1
  39   21   46 1
  40   22   23 am
  41   23   24 2
  42   23   25 2
  43   23   26 1
  44   26   27 1
  45   26   47 1
  46   26   48 1
  47   27   28 ar
  48   27   30 ar
  49   28   33 ar
  50   28   49 1
  51   29   50 1
  52   29   51 1
  53   29   52 1
  54   30   31 ar
  55   30   53 1
  56   31   32 ar
  57   31   54 1
  58   32   33 ar
  59   32   55 1
  60   33   56 1

#	End of record

