#	Name: ASD02508137
#	Creating user name:	WinNT
#	Creation time:	15. 06. 2019 20:23

#	Modifying user name:	WinNT
#	Modification time:	15. 06. 2019 20:23

#	Program:	/corina/corina34_cracker 3.40 0067  02.08.2006

@<TRIPOS>MOLECULE
ASD02508137
  33   35    0    0    0
SMALL
NO_CHARGES


@<TRIPOS>ATOM
   1 C1             0.4145     1.9084     0.0046 C.ar    
   2 C2             0.2419     0.5365     0.1018 C.ar    
   3 C3             1.6966     2.4447    -0.1103 C.ar    
   4 C4             2.7964     1.6012    -0.1274 C.ar    
   5 C5             2.6191     0.2350    -0.0307 C.ar    
   6 C6             1.3447    -0.2981     0.0844 C.ar    
   7 N7            -0.4712     2.9856    -0.0126 N.am    
   8 C8             0.2616     4.1109    -0.1264 C.2     
   9 O9             1.5640     3.7921    -0.1866 O.3     
  10 S10            4.0188    -0.8350    -0.0533 S.o2    
  11 N11            4.1156    -1.5470     1.4387 N.am    
  12 C12            4.3534    -0.7652     2.5715 C.ar    
  13 O13           -0.1878     5.2398    -0.1728 O.2     
  14 C14           -1.9314     2.9080     0.0768 C.3     
  15 O15            3.7152    -1.8735    -0.9745 O.2     
  16 O16            5.1613     0.0013    -0.1737 O.2     
  17 C17            3.5845    -0.9440     3.7145 C.ar    
  18 C18            5.3629     0.1889     2.5595 C.ar    
  19 C19            5.5952     0.9602     3.6812 C.ar    
  20 C20            4.8245     0.7833     4.8157 C.ar    
  21 C21            3.8222    -0.1693     4.8328 C.ar    
  22 F22            1.1795    -1.6356     0.1790 F       
  23 H23           -0.7508     0.1205     0.1912 H       
  24 H24            3.7912     2.0121    -0.2166 H       
  25 H25            4.0073    -2.5070     1.5259 H       
  26 H26           -2.2343     2.9538     1.1229 H       
  27 H27           -2.3735     3.7432    -0.4664 H       
  28 H28           -2.2728     1.9693    -0.3595 H       
  29 H29            2.8015    -1.6878     3.7286 H       
  30 H30            5.9656     0.3271     1.6740 H       
  31 H31            6.3799     1.7022     3.6726 H       
  32 H32            5.0088     1.3873     5.6918 H       
  33 H33            3.2221    -0.3049     5.7205 H       
@<TRIPOS>BOND
   1    1    2 ar
   2    1    3 ar
   3    1    7 1
   4    2    6 ar
   5    2   23 1
   6    3    4 ar
   7    3    9 1
   8    4    5 ar
   9    4   24 1
  10    5    6 ar
  11    5   10 1
  12    6   22 1
  13    7    8 am
  14    7   14 1
  15    8    9 1
  16    8   13 2
  17   10   11 am
  18   10   15 2
  19   10   16 2
  20   11   12 1
  21   11   25 1
  22   12   17 ar
  23   12   18 ar
  24   14   26 1
  25   14   27 1
  26   14   28 1
  27   17   21 ar
  28   17   29 1
  29   18   19 ar
  30   18   30 1
  31   19   20 ar
  32   19   31 1
  33   20   21 ar
  34   20   32 1
  35   21   33 1

#	End of record

