#	Name: ASD01940527
#	Creating user name:	WinNT
#	Creation time:	15. 06. 2019 20:12

#	Modifying user name:	WinNT
#	Modification time:	15. 06. 2019 20:12

#	Program:	/corina/corina34_cracker 3.40 0067  02.08.2006

@<TRIPOS>MOLECULE
ASD01940527
  48   50    0    0    0
SMALL
NO_CHARGES


@<TRIPOS>ATOM
   1 C1            -0.0859     0.8441    -0.5887 C.ar    
   2 C2             0.0917    -0.5350    -0.5319 C.ar    
   3 C3             1.3599    -1.0761    -0.3709 C.ar    
   4 C4             2.4533    -0.2368    -0.2663 C.ar    
   5 C5             2.2666     1.1556    -0.3245 C.ar    
   6 C6             0.9876     1.6851    -0.4864 C.ar    
   7 O7             3.7056    -0.7259    -0.1090 O.3     
   8 C8             4.7635     0.0920    -0.0084 C.2     
   9 N9             4.6572     1.4299    -0.0559 N.am    
  10 C10            3.4521     2.0228    -0.2105 C.2     
  11 O11            3.3499     3.2338    -0.2542 O.2     
  12 O12            5.8661    -0.3986     0.1321 O.2     
  13 C13            5.8611     2.2564     0.0613 C.3     
  14 C14            6.4367     2.5027    -1.3095 C.ar    
  15 C15            7.5123     1.7546    -1.7518 C.ar    
  16 C16            8.0438     1.9777    -3.0087 C.ar    
  17 C17            7.5017     2.9490    -3.8280 C.ar    
  18 C18            6.4216     3.7024    -3.3888 C.ar    
  19 C19            5.8853     3.4728    -2.1262 C.ar    
  20 F20            4.8342     4.2034    -1.6944 F       
  21 N21            5.8707     4.6864    -4.2159 N.am    
  22 O22           -0.9832    -1.3572    -0.6343 O.3     
  23 S23            6.8505     5.5717    -5.2152 S.o2    
  24 N24            7.4563     4.5329    -6.3538 N.am    
  25 O25            6.0031     6.4773    -5.9087 O.2     
  26 O26            7.9554     5.9905    -4.4258 O.2     
  27 C27           -2.2605    -0.7378    -0.7980 C.3     
  28 C28            6.5548     3.8930    -7.3151 C.3     
  29 C29            7.3726     3.2983    -8.4633 C.3     
  30 C30            6.4668     2.6554    -9.4292 C.1     
  31 N31            5.7678     2.1592   -10.1746 N.1     
  32 H32           -1.0772     1.2527    -0.7187 H       
  33 H33            1.4916    -2.1471    -0.3272 H       
  34 H34            0.8450     2.7547    -0.5310 H       
  35 H35            5.6040     3.2093     0.5240 H       
  36 H36            6.5976     1.7404     0.6773 H       
  37 H37            7.9385     0.9944    -1.1139 H       
  38 H38            8.8843     1.3918    -3.3503 H       
  39 H39            7.9182     3.1223    -4.8093 H       
  40 H40            4.9148     4.8503    -4.2042 H       
  41 H41            8.4081     4.3481    -6.3842 H       
  42 H42           -3.0307    -1.5060    -0.8667 H       
  43 H43           -2.4645    -0.0942     0.0577 H       
  44 H44           -2.2606    -0.1406    -1.7099 H       
  45 H45            5.9968     3.0998    -6.8175 H       
  46 H46            5.8595     4.6339    -7.7098 H       
  47 H47            7.9306     4.0915    -8.9609 H       
  48 H48            8.0679     2.5575    -8.0686 H       
@<TRIPOS>BOND
   1    1    2 ar
   2    1    6 ar
   3    1   32 1
   4    2    3 ar
   5    2   22 1
   6    3    4 ar
   7    3   33 1
   8    4    5 ar
   9    4    7 1
  10    5    6 ar
  11    5   10 1
  12    6   34 1
  13    7    8 1
  14    8    9 am
  15    8   12 2
  16    9   10 am
  17    9   13 1
  18   10   11 2
  19   13   14 1
  20   13   35 1
  21   13   36 1
  22   14   15 ar
  23   14   19 ar
  24   15   16 ar
  25   15   37 1
  26   16   17 ar
  27   16   38 1
  28   17   18 ar
  29   17   39 1
  30   18   19 ar
  31   18   21 1
  32   19   20 1
  33   21   23 am
  34   21   40 1
  35   22   27 1
  36   23   24 am
  37   23   25 2
  38   23   26 2
  39   24   28 1
  40   24   41 1
  41   27   42 1
  42   27   43 1
  43   27   44 1
  44   28   29 1
  45   28   45 1
  46   28   46 1
  47   29   30 1
  48   29   47 1
  49   29   48 1
  50   30   31 3

#	End of record

