#	Name: ASD01810724
#	Creating user name:	WinNT
#	Creation time:	15. 06. 2019 19:25

#	Modifying user name:	WinNT
#	Modification time:	15. 06. 2019 19:25

#	Program:	/corina/corina34_cracker 3.40 0067  02.08.2006

@<TRIPOS>MOLECULE
ASD01810724
  45   47    0    0    0
SMALL
NO_CHARGES


@<TRIPOS>ATOM
   1 C1            -3.4733    -0.0610    -1.7695 C.1     
   2 C2            -2.9753     1.2432    -1.4506 C.ar    
   3 C3            -1.6161     1.4308    -1.1911 C.ar    
   4 C4            -1.1432     2.6899    -0.8845 C.ar    
   5 C5            -2.0122     3.7654    -0.8334 C.ar    
   6 C6            -3.3602     3.5865    -1.0890 C.ar    
   7 C7            -3.8456     2.3341    -1.4035 C.ar    
   8 N8            -3.8684    -1.0956    -2.0225 N.1     
   9 N9            -1.7593     7.9154    -0.0372 N.am    
  10 C10           -1.2114     7.4772    -1.3282 C.3     
  11 C11           -1.7760     6.0919    -1.6587 C.3     
  12 C12           -1.4882     5.1378    -0.4973 C.3     
  13 C13           -2.1774     5.6506     0.7692 C.3     
  14 C14           -1.6174     7.0308     1.1273 C.3     
  15 C15           -2.3754     9.1085     0.0778 C.2     
  16 C16           -2.9953     9.4997     1.3620 C.ar    
  17 C17           -2.2668     9.4064     2.5479 C.ar    
  18 C18           -2.8547     9.7755     3.7479 C.ar    
  19 C19           -4.1661    10.2367     3.7664 C.ar    
  20 C20           -4.8878    10.3286     2.5914 C.ar    
  21 C21           -4.3095     9.9690     1.3908 C.ar    
  22 O22           -2.4214     9.8631    -0.8740 O.2     
  23 C23           -4.8030    10.6373     5.0722 C.3     
  24 N24           -2.1296     9.6836     4.9386 N.pl3   
  25 H25           -0.9369     0.5921    -1.2300 H       
  26 H26           -0.0922     2.8365    -0.6836 H       
  27 H27           -4.0331     4.4302    -1.0471 H       
  28 H28           -4.8972     2.1967    -1.6075 H       
  29 H29           -1.4992     8.1842    -2.1062 H       
  30 H30           -0.1246     7.4231    -1.2645 H       
  31 H31           -2.8528     6.1649    -1.8113 H       
  32 H32           -1.3043     5.7138    -2.5657 H       
  33 H33           -0.4126     5.0846    -0.3290 H       
  34 H34           -3.2504     5.7277     0.5937 H       
  35 H35           -1.9914     4.9583     1.5904 H       
  36 H36           -0.5637     6.9404     1.3912 H       
  37 H37           -2.1730     7.4433     1.9694 H       
  38 H38           -1.2483     9.0475     2.5313 H       
  39 H39           -5.9063    10.6873     2.6120 H       
  40 H40           -4.8754    10.0466     0.4742 H       
  41 H41           -4.6200    11.6960     5.2559 H       
  42 H42           -5.8769    10.4574     5.0229 H       
  43 H43           -4.3726    10.0483     5.8821 H       
  44 H44           -1.2148     9.3614     4.9256 H       
  45 H45           -2.5411     9.9418     5.7782 H       
@<TRIPOS>BOND
   1    1    2 1
   2    1    8 3
   3    2    3 ar
   4    2    7 ar
   5    3    4 ar
   6    3   25 1
   7    4    5 ar
   8    4   26 1
   9    5    6 ar
  10    5   12 1
  11    6    7 ar
  12    6   27 1
  13    7   28 1
  14    9   10 1
  15    9   14 1
  16    9   15 am
  17   10   11 1
  18   10   29 1
  19   10   30 1
  20   11   12 1
  21   11   31 1
  22   11   32 1
  23   12   13 1
  24   12   33 1
  25   13   14 1
  26   13   34 1
  27   13   35 1
  28   14   36 1
  29   14   37 1
  30   15   16 1
  31   15   22 2
  32   16   17 ar
  33   16   21 ar
  34   17   18 ar
  35   17   38 1
  36   18   19 ar
  37   18   24 1
  38   19   20 ar
  39   19   23 1
  40   20   21 ar
  41   20   39 1
  42   21   40 1
  43   23   41 1
  44   23   42 1
  45   23   43 1
  46   24   44 1
  47   24   45 1

#	End of record

