#	Name: ASD05430162
#	Creating user name:	WinNT
#	Creation time:	15. 06. 2019 20:59

#	Modifying user name:	WinNT
#	Modification time:	15. 06. 2019 20:59

#	Program:	/corina/corina34_cracker 3.40 0067  02.08.2006

@<TRIPOS>MOLECULE
ASD05430162
  70   75    0    0    0
SMALL
NO_CHARGES


@<TRIPOS>ATOM
   1 C1            -0.0102     1.3701    -0.1567 C.ar    
   2 C2             0.0204    -0.0143    -0.3187 C.ar    
   3 C3             1.2358    -0.6830    -0.3829 C.ar    
   4 C4             2.4181     0.0185    -0.2864 C.ar    
   5 C5             2.3956     1.4080    -0.1237 C.ar    
   6 C6             1.1713     2.0810    -0.0595 C.ar    
   7 O7             4.8752     0.1441     0.2384 O.3     
   8 C8             4.8323     1.4969     0.0682 C.2     
   9 C9             3.6562     2.1589    -0.0200 C.2     
  10 C10            6.1000    -0.4459     0.6727 C.3     
  11 C11            6.8901     0.5057     1.5761 C.3     
  12 N12            7.1295     1.7562     0.8528 N.pl3   
  13 C13            6.1221     2.2077    -0.0152 C.2     
  14 N14           -1.1801    -0.7340    -0.4166 N.pl3   
  15 C15           -1.5010    -1.6560    -1.3785 C.2     
  16 C16           -2.7409    -2.0997    -1.0956 C.2     
  17 N17           -3.1694    -1.4691     0.0077 N.2     
  18 C18           -2.2410    -0.6526     0.4271 C.2     
  19 C19           -3.5133    -3.1266    -1.8830 C.3     
  20 C20            8.3448     2.5452     1.0313 C.3     
  21 C21            8.7741     3.1110    -0.3273 C.3     
  22 N22            7.6192     3.7207    -0.9910 N.pl3   
  23 N23            6.3403     3.1664    -0.8538 N.2     
  24 C24            8.0748     3.6785     1.9873 C.ar    
  25 C25            9.0853     4.5647     2.3108 C.ar    
  26 C26            6.8154     3.8343     2.5356 C.ar    
  27 C27            6.5664     4.8737     3.4117 C.ar    
  28 C28            7.5790     5.7589     3.7406 C.ar    
  29 C29            8.8388     5.6046     3.1870 C.ar    
  30 F30            7.3368     6.7753     4.5969 F       
  31 C31           -1.1587     3.4402     0.0673 C.3     
  32 O32           -1.2021     2.0216    -0.0999 O.3     
  33 C33            5.7898    -1.7305     1.4508 C.3     
  34 C34            5.0807    -2.7183     0.5197 C.3     
  35 C35            5.9661    -2.9831    -0.7008 C.3     
  36 O36            6.2491    -1.7469    -1.3594 O.3     
  37 C37            6.9514    -0.8011    -0.5507 C.3     
  38 C38            9.4564     1.6546     1.5897 C.3     
  39 H39            1.2545    -1.7555    -0.5085 H       
  40 H40            3.3618    -0.5042    -0.3360 H       
  41 H41            1.1490     3.1535     0.0657 H       
  42 H42            3.6426     3.2388    -0.0142 H       
  43 H43            6.3169     0.7109     2.4802 H       
  44 H44            7.8436     0.0494     1.8419 H       
  45 H45           -0.8791    -1.9671    -2.2048 H       
  46 H46           -2.3082    -0.0142     1.2956 H       
  47 H47           -3.2995    -4.1210    -1.4912 H       
  48 H48           -4.5806    -2.9236    -1.7961 H       
  49 H49           -3.2183    -3.0779    -2.9312 H       
  50 H50            9.5473     3.8647    -0.1789 H       
  51 H51            9.1665     2.3058    -0.9484 H       
  52 H52            7.7415     4.5171    -1.5311 H       
  53 H53           10.0678     4.4442     1.8789 H       
  54 H54            6.0256     3.1438     2.2790 H       
  55 H55            5.5822     4.9957     3.8394 H       
  56 H56            9.6295     6.2942     3.4430 H       
  57 H57           -0.6195     3.8881    -0.7674 H       
  58 H58           -2.1747     3.8338     0.0967 H       
  59 H59           -0.6487     3.6806     1.0002 H       
  60 H60            6.7189    -2.1719     1.8115 H       
  61 H61            5.1427    -1.4975     2.2964 H       
  62 H62            4.9016    -3.6539     1.0496 H       
  63 H63            4.1302    -2.2948     0.1952 H       
  64 H64            6.8993    -3.4457    -0.3795 H       
  65 H65            5.4471    -3.6508    -1.3884 H       
  66 H66            7.1464     0.1002    -1.1319 H       
  67 H67            7.8964    -1.2340    -0.2227 H       
  68 H68            9.6527     0.8390     0.8938 H       
  69 H69           10.3630     2.2451     1.7224 H       
  70 H70            9.1456     1.2452     2.5509 H       
@<TRIPOS>BOND
   1    1    2 ar
   2    1    6 ar
   3    1   32 1
   4    2    3 ar
   5    2   14 1
   6    3    4 ar
   7    3   39 1
   8    4    5 ar
   9    4   40 1
  10    5    6 ar
  11    5    9 1
  12    6   41 1
  13    7    8 1
  14    7   10 1
  15    8    9 2
  16    8   13 1
  17    9   42 1
  18   10   11 1
  19   10   33 1
  20   10   37 1
  21   11   12 1
  22   11   43 1
  23   11   44 1
  24   12   13 1
  25   12   20 1
  26   13   23 2
  27   14   15 1
  28   14   18 1
  29   15   16 2
  30   15   45 1
  31   16   17 1
  32   16   19 1
  33   17   18 2
  34   18   46 1
  35   19   47 1
  36   19   48 1
  37   19   49 1
  38   20   21 1
  39   20   24 1
  40   20   38 1
  41   21   22 1
  42   21   50 1
  43   21   51 1
  44   22   23 1
  45   22   52 1
  46   24   25 ar
  47   24   26 ar
  48   25   29 ar
  49   25   53 1
  50   26   27 ar
  51   26   54 1
  52   27   28 ar
  53   27   55 1
  54   28   29 ar
  55   28   30 1
  56   29   56 1
  57   31   32 1
  58   31   57 1
  59   31   58 1
  60   31   59 1
  61   33   34 1
  62   33   60 1
  63   33   61 1
  64   34   35 1
  65   34   62 1
  66   34   63 1
  67   35   36 1
  68   35   64 1
  69   35   65 1
  70   36   37 1
  71   37   66 1
  72   37   67 1
  73   38   68 1
  74   38   69 1
  75   38   70 1

#	End of record

