#	Name: ASD01850073
#	Creating user name:	WinNT
#	Creation time:	15. 06. 2019 19:38

#	Modifying user name:	WinNT
#	Modification time:	15. 06. 2019 19:38

#	Program:	/corina/corina34_cracker 3.40 0067  02.08.2006

@<TRIPOS>MOLECULE
ASD01850073
  43   46    0    0    0
SMALL
NO_CHARGES


@<TRIPOS>ATOM
   1 C1            -0.0168     1.3843     0.0097 C.ar    
   2 C2             0.0021    -0.0041     0.0020 C.ar    
   3 C3            -1.1777    -0.7246     0.0094 C.ar    
   4 C4            -2.3999    -0.0665     0.0251 C.ar    
   5 C5            -2.4192     1.3375     0.0333 C.ar    
   6 C6            -1.2260     2.0594     0.0306 C.ar    
   7 N7            -3.7078    -0.5524     0.0356 N.am    
   8 C8            -4.6034     0.4498     0.0503 C.2     
   9 C9            -3.8381     1.7397     0.0499 C.2     
  10 C10           -4.0602    -1.9744     0.0303 C.3     
  11 C11           -4.1664    -2.4709     1.4492 C.ar    
  12 C12           -5.3790    -2.4095     2.1118 C.ar    
  13 C13           -5.4819    -2.8628     3.4113 C.ar    
  14 C14           -4.3615    -3.3834     4.0556 C.ar    
  15 C15           -3.1426    -3.4433     3.3832 C.ar    
  16 C16           -3.0521    -2.9916     2.0822 C.ar    
  17 C17           -4.4659    -3.8719     5.4529 C.ar    
  18 C18           -3.3455    -4.3925     6.0972 C.ar    
  19 C19           -5.6834    -3.8063     6.1274 C.ar    
  20 C20           -5.7749    -4.2621     7.4270 C.ar    
  21 C21           -4.6607    -4.7828     8.0600 C.ar    
  22 C22           -3.4483    -4.8455     7.3969 C.ar    
  23 O23           -4.2876     2.8669     0.0615 O.2     
  24 O24           -5.8108     0.3324     0.0613 O.2     
  25 O25            1.1513     2.0807     0.0022 O.3     
  26 C26            2.3605     1.3194    -0.0134 C.3     
  27 F27            2.3928     0.5189    -1.1603 F       
  28 F28            3.4579     2.1871    -0.0192 F       
  29 F29            2.4146     0.5067     1.1241 F       
  30 H30            0.9475    -0.5260    -0.0102 H       
  31 H31           -1.1484    -1.8042     0.0026 H       
  32 H32           -1.2448     3.1392     0.0373 H       
  33 H33           -5.0167    -2.1098    -0.4746 H       
  34 H34           -3.2891    -2.5379    -0.4951 H       
  35 H35           -6.2468    -2.0058     1.6114 H       
  36 H36           -6.4290    -2.8138     3.9280 H       
  37 H37           -2.2710    -3.8459     3.8779 H       
  38 H38           -2.1079    -3.0379     1.5599 H       
  39 H39           -2.3985    -4.4419     5.5804 H       
  40 H40           -6.5538    -3.3993     5.6343 H       
  41 H41           -6.7180    -4.2118     7.9507 H       
  42 H42           -4.7365    -5.1377     9.0772 H       
  43 H43           -2.5815    -5.2530     7.8958 H       
@<TRIPOS>BOND
   1    1    2 ar
   2    1   25 1
   3    1    6 ar
   4    2    3 ar
   5    2   30 1
   6    3    4 ar
   7    3   31 1
   8    4    5 ar
   9    4    7 1
  10    5    6 ar
  11    5    9 1
  12    6   32 1
  13    7    8 am
  14    7   10 1
  15    8   24 2
  16    8    9 1
  17    9   23 2
  18   10   11 1
  19   10   33 1
  20   10   34 1
  21   11   12 ar
  22   11   16 ar
  23   12   13 ar
  24   12   35 1
  25   13   14 ar
  26   13   36 1
  27   14   15 ar
  28   14   17 1
  29   15   16 ar
  30   15   37 1
  31   16   38 1
  32   17   18 ar
  33   17   19 ar
  34   18   22 ar
  35   18   39 1
  36   19   20 ar
  37   19   40 1
  38   20   21 ar
  39   20   41 1
  40   21   22 ar
  41   21   42 1
  42   22   43 1
  43   25   26 1
  44   26   27 1
  45   26   28 1
  46   26   29 1

#	End of record

