#	Name: ASD00069141
#	Creating user name:	WinNT
#	Creation time:	15. 06. 2019 18:29

#	Modifying user name:	WinNT
#	Modification time:	15. 06. 2019 18:29

#	Program:	/corina/corina34_cracker 3.40 0067  02.08.2006

@<TRIPOS>MOLECULE
ASD00069141
  59   62    0    0    0
SMALL
NO_CHARGES


@<TRIPOS>ATOM
   1 C1             0.1846     1.2165    -0.7110 C.2     
   2 N2             0.2858     0.0281    -0.1573 N.2     
   3 C3             1.5295    -0.4327    -0.3375 C.2     
   4 C4             2.2333     0.5098    -1.0337 C.2     
   5 N5             1.3907     1.5416    -1.2669 N.pl3   
   6 C6            -1.0275     2.0549    -0.7339 C.2     
   7 O7            -1.0046     3.1423    -1.2783 O.2     
   8 N8            -2.1612     1.6165    -0.1517 N.am    
   9 C9             2.0530    -1.7381     0.1364 C.ar    
  10 C10            1.8554    -2.1325     1.4582 C.ar    
  11 C11            2.3439    -3.3476     1.8934 C.ar    
  12 C12            3.0291    -4.1733     1.0202 C.ar    
  13 C13            3.2285    -3.7866    -0.2926 C.ar    
  14 C14            2.7388    -2.5761    -0.7402 C.ar    
  15 C15            3.9768    -4.6910    -1.2377 C.3     
  16 C16            1.1100    -1.2337     2.4108 C.3     
  17 C17           -3.2762     2.4596    -0.0671 C.ar    
  18 C18           -4.5625     1.9277    -0.1483 C.ar    
  19 C19           -5.6636     2.7693    -0.0637 C.ar    
  20 C20           -5.4814     4.1316     0.1008 C.ar    
  21 C21           -4.2051     4.6574     0.1811 C.ar    
  22 C22           -3.1039     3.8255     0.1035 C.ar    
  23 F23           -6.9120     2.2590    -0.1422 F       
  24 N24           -4.7433     0.5487    -0.3151 N.3     
  25 C25           -5.5072    -0.0209     0.8022 C.3     
  26 C26           -5.5601    -1.5439     0.6617 C.3     
  27 C27           -6.2220    -1.9060    -0.6707 C.3     
  28 C28           -5.4350    -1.2606    -1.8146 C.3     
  29 C29           -5.3857     0.2542    -1.6024 C.3     
  30 C30           -6.2231    -3.4261    -0.8446 C.3     
  31 N31           -6.9632    -3.7790    -2.0635 N.3     
  32 H32            3.2669     0.4432    -1.3396 H       
  33 H33            1.6027     2.3607    -1.7412 H       
  34 H34           -2.2049     0.7170     0.2087 H       
  35 H35            2.1912    -3.6543     2.9176 H       
  36 H36            3.4100    -5.1233     1.3650 H       
  37 H37            2.8908    -2.2772    -1.7668 H       
  38 H38            3.2736    -5.3608    -1.7328 H       
  39 H39            4.4925    -4.0884    -1.9854 H       
  40 H40            4.7053    -5.2780    -0.6785 H       
  41 H41            0.0597    -1.5241     2.4379 H       
  42 H42            1.5385    -1.3267     3.4087 H       
  43 H43            1.1926    -0.2000     2.0749 H       
  44 H44           -6.3384     4.7856     0.1662 H       
  45 H45           -4.0683     5.7211     0.3091 H       
  46 H46           -2.1088     4.2396     0.1711 H       
  47 H47           -5.0236     0.2404     1.7434 H       
  48 H48           -6.5206     0.3803     0.7911 H       
  49 H49           -4.5477    -1.9470     0.6866 H       
  50 H50           -6.1404    -1.9651     1.4827 H       
  51 H51           -7.2475    -1.5366    -0.6802 H       
  52 H52           -4.4206    -1.6593    -1.8287 H       
  53 H53           -5.9259    -1.4795    -2.7629 H       
  54 H54           -6.3997     0.6540    -1.6022 H       
  55 H55           -4.8138     0.7153    -2.4076 H       
  56 H56           -5.1965    -3.7831    -0.9267 H       
  57 H57           -6.7013    -3.8902     0.0180 H       
  58 H58           -6.9783    -4.7785    -2.2008 H       
  59 H59           -7.8992    -3.4031    -2.0397 H       
@<TRIPOS>BOND
   1    1    2 2
   2    1    5 1
   3    1    6 1
   4    2    3 1
   5    3    4 2
   6    3    9 1
   7    4    5 1
   8    4   32 1
   9    5   33 1
  10    6    7 2
  11    6    8 am
  12    8   17 1
  13    8   34 1
  14    9   10 ar
  15    9   14 ar
  16   10   11 ar
  17   10   16 1
  18   11   12 ar
  19   11   35 1
  20   12   13 ar
  21   12   36 1
  22   13   14 ar
  23   13   15 1
  24   14   37 1
  25   15   38 1
  26   15   39 1
  27   15   40 1
  28   16   41 1
  29   16   42 1
  30   16   43 1
  31   17   18 ar
  32   17   22 ar
  33   18   19 ar
  34   18   24 1
  35   19   20 ar
  36   19   23 1
  37   20   21 ar
  38   20   44 1
  39   21   22 ar
  40   21   45 1
  41   22   46 1
  42   24   25 1
  43   24   29 1
  44   25   26 1
  45   25   47 1
  46   25   48 1
  47   26   27 1
  48   26   49 1
  49   26   50 1
  50   27   28 1
  51   27   30 1
  52   27   51 1
  53   28   29 1
  54   28   52 1
  55   28   53 1
  56   29   54 1
  57   29   55 1
  58   30   31 1
  59   30   56 1
  60   30   57 1
  61   31   58 1
  62   31   59 1

#	End of record

