#	Name: ASD01914689
#	Creating user name:	WinNT
#	Creation time:	15. 06. 2019 20:04

#	Modifying user name:	WinNT
#	Modification time:	15. 06. 2019 20:04

#	Program:	/corina/corina34_cracker 3.40 0067  02.08.2006

@<TRIPOS>MOLECULE
ASD01914689
  41   44    0    0    0
SMALL
NO_CHARGES


@<TRIPOS>ATOM
   1 N1            -0.0160     1.3252     0.0093 N.ar    
   2 C2             0.0021    -0.0041     0.0020 C.ar    
   3 C3             1.2182    -0.6965    -0.0128 C.ar    
   4 C4             2.4015     0.0246    -0.0203 C.ar    
   5 C5             2.3327     1.4106    -0.0127 C.ar    
   6 C6             1.0959     2.0305     0.0025 C.ar    
   7 C7            -1.2310    -0.7322     0.0099 C.1     
   8 C8            -2.2419    -1.3291     0.0163 C.1     
   9 C9            -3.4749    -2.0573     0.0242 C.ar    
  10 C10           -3.4555    -3.4544     0.0165 C.ar    
  11 C11           -4.6552    -4.1425     0.0247 C.ar    
  12 C12           -5.8374    -3.4146     0.0404 C.ar    
  13 C13           -5.7846    -2.0325     0.0473 C.ar    
  14 N14           -4.6299    -1.3991     0.0443 N.ar    
  15 C15           -7.0664    -1.2402     0.0642 C.3     
  16 C16           -7.0800    -0.2580     1.2515 C.3     
  17 O17           -8.2227    -0.6841     2.0487 O.3     
  18 C18           -8.8079    -1.7351     1.4633 C.2     
  19 N19           -8.2150    -2.1212     0.3253 N.am    
  20 O20           -9.7872    -2.2892     1.9219 O.2     
  21 C21           -7.2724     1.1555     0.7657 C.ar    
  22 C22           -6.1742     1.9666     0.5484 C.ar    
  23 C23           -6.3494     3.2629     0.1024 C.ar    
  24 C24           -7.6254     3.7491    -0.1267 C.ar    
  25 C25           -8.7245     2.9358     0.0913 C.ar    
  26 C26           -8.5466     1.6382     0.5322 C.ar    
  27 F27           -7.7979     5.0163    -0.5622 F       
  28 F28            1.2382    -2.0474    -0.0194 F       
  29 H29            3.3559    -0.4807    -0.0314 H       
  30 H30            3.2373     2.0006    -0.0178 H       
  31 H31            1.0416     3.1091     0.0084 H       
  32 H32           -2.5173    -3.9892     0.0040 H       
  33 H33           -4.6721    -5.2224     0.0187 H       
  34 H34           -6.7901    -3.9232     0.0467 H       
  35 H35           -7.1972    -0.7054    -0.8765 H       
  36 H36           -6.1589    -0.3429     1.8281 H       
  37 H37           -8.4971    -2.8612    -0.2348 H       
  38 H38           -5.1790     1.5873     0.7275 H       
  39 H39           -5.4913     3.8965    -0.0670 H       
  40 H40           -9.7203     3.3140    -0.0871 H       
  41 H41           -9.4038     1.0036     0.7024 H       
@<TRIPOS>BOND
   1    1    2 ar
   2    1    6 ar
   3    2    3 ar
   4    2    7 1
   5    3    4 ar
   6    3   28 1
   7    4    5 ar
   8    4   29 1
   9    5    6 ar
  10    5   30 1
  11    6   31 1
  12    7    8 3
  13    8    9 1
  14    9   10 ar
  15    9   14 ar
  16   10   11 ar
  17   10   32 1
  18   11   12 ar
  19   11   33 1
  20   12   13 ar
  21   12   34 1
  22   13   14 ar
  23   13   15 1
  24   15   16 1
  25   15   19 1
  26   15   35 1
  27   16   17 1
  28   16   21 1
  29   16   36 1
  30   17   18 1
  31   18   19 am
  32   18   20 2
  33   19   37 1
  34   21   22 ar
  35   21   26 ar
  36   22   23 ar
  37   22   38 1
  38   23   24 ar
  39   23   39 1
  40   24   25 ar
  41   24   27 1
  42   25   26 ar
  43   25   40 1
  44   26   41 1

#	End of record

