#	Name: ASD01478013
#	Creating user name:	WinNT
#	Creation time:	15. 06. 2019 19:21

#	Modifying user name:	WinNT
#	Modification time:	15. 06. 2019 19:21

#	Program:	/corina/corina34_cracker 3.40 0067  02.08.2006

@<TRIPOS>MOLECULE
ASD01478013
  82   84    0    0    0
SMALL
NO_CHARGES


@<TRIPOS>ATOM
   1 C1             1.5803     1.3486     1.9363 C.3     
   2 C2             3.0079     2.1277     0.1896 C.2     
   3 O3             2.8002     2.0138     1.5150 O.3     
   4 N4             4.1207     2.7346    -0.2685 N.am    
   5 O5             2.1920     1.6833    -0.5936 O.2     
   6 C6             3.6288     4.1041    -2.2341 C.3     
   7 C7             4.3466     2.8585    -1.7106 C.3     
   8 C8             5.8471     2.9822    -1.9830 C.3     
   9 C9             6.0927     2.9862    -3.4931 C.3     
  10 N10            7.5341     2.9567    -3.7535 N.am    
  11 S11            8.2965     1.5125    -4.0280 S.o2    
  12 C12            8.2418     1.2155    -5.7639 C.ar    
  13 C13            9.2631     1.6745    -6.5751 C.ar    
  14 C14            9.2225     1.4429    -7.9364 C.ar    
  15 C15            8.1560     0.7491    -8.4894 C.ar    
  16 C16            7.1325     0.2896    -7.6733 C.ar    
  17 C17            7.1806     0.5189    -6.3118 C.ar    
  18 O18            9.6642     1.7117    -3.6978 O.2     
  19 O19            7.4890     0.5113    -3.4240 O.2     
  20 C20            8.3010     4.2048    -3.7711 C.3     
  21 C21            7.8170     5.0845    -4.9256 C.3     
  22 C22            8.5106     6.4464    -4.8545 C.3     
  23 C23            8.1535     4.4097    -6.2568 C.3     
  24 O24            6.3349     4.2007    -1.4178 O.3     
  25 C25            1.8439    -0.1677     2.0856 C.3     
  26 O26            3.0098    -0.3993     2.7530 O.3     
  27 C27            3.1192     0.0729     4.1025 C.3     
  28 C28            3.5269     1.5264     4.0425 C.3     
  29 C29            2.3042     2.4514     4.1090 C.3     
  30 C30            1.1337     1.9087     3.2654 C.3     
  31 O31            0.2048     2.9688     3.0301 O.3     
  32 C32           -0.8129     3.0818     4.0268 C.3     
  33 C33            2.1402     3.9292    -2.0774 C.ar    
  34 C34            1.5146     4.3401    -0.9152 C.ar    
  35 C35            0.1491     4.1796    -0.7715 C.ar    
  36 C36           -0.5907     3.6086    -1.7900 C.ar    
  37 C37            0.0348     3.1985    -2.9525 C.ar    
  38 C38            1.3996     3.3630    -3.0981 C.ar    
  39 O39            8.1136     0.5204    -9.8283 O.3     
  40 C40            6.9854    -0.2004   -10.3280 C.3     
  41 H41            0.8011     1.5111     1.1916 H       
  42 H42            4.7720     3.0893     0.3568 H       
  43 H43            3.9539     4.9762    -1.6668 H       
  44 H44            3.8690     4.2459    -3.2878 H       
  45 H45            3.9572     1.9751    -2.2166 H       
  46 H46            6.3690     2.1381    -1.5322 H       
  47 H47            5.6248     2.1089    -3.9396 H       
  48 H48            5.6632     3.8884    -3.9287 H       
  49 H49           10.0930     2.2149    -6.1442 H       
  50 H50           10.0203     1.8020    -8.5697 H       
  51 H51            6.3012    -0.2508    -8.1014 H       
  52 H52            6.3841     0.1613    -5.6761 H       
  53 H53            8.1584     4.7322    -2.8279 H       
  54 H54            9.3589     3.9793    -3.9050 H       
  55 H55            6.7383     5.2218    -4.8502 H       
  56 H56            9.5893     6.3092    -4.9298 H       
  57 H57            8.1657     7.0732    -5.6769 H       
  58 H58            8.2708     6.9272    -3.9061 H       
  59 H59            9.2327     4.2787    -6.3352 H       
  60 H60            7.6649     3.4365    -6.3046 H       
  61 H61            7.8025     5.0332    -7.0792 H       
  62 H62            5.9794     4.9976    -1.8346 H       
  63 H63            1.0201    -0.6215     2.6365 H       
  64 H64            1.9028    -0.6197     1.0954 H       
  65 H65            2.1575    -0.0214     4.6069 H       
  66 H66            3.8760    -0.5023     4.6359 H       
  67 H67            4.1872     1.7468     4.8813 H       
  68 H68            4.0622     1.7088     3.1107 H       
  69 H69            1.9827     2.5420     5.1465 H       
  70 H70            2.5834     3.4372     3.7372 H       
  71 H71            0.6306     1.1217     3.8273 H       
  72 H72           -1.3858     2.1554     4.0679 H       
  73 H73           -0.3521     3.2674     4.9971 H       
  74 H74           -1.4770     3.9089     3.7759 H       
  75 H75            2.0926     4.7862    -0.1195 H       
  76 H76           -0.3396     4.4999     0.1368 H       
  77 H77           -1.6574     3.4825    -1.6774 H       
  78 H78           -0.5432     2.7521    -3.7482 H       
  79 H79            1.8877     3.0460    -4.0078 H       
  80 H80            6.9475    -1.1848    -9.8614 H       
  81 H81            6.0722     0.3473   -10.0954 H       
  82 H82            7.0760    -0.3136   -11.4083 H       
@<TRIPOS>BOND
   1    1   25 1
   2    1    3 1
   3    1   30 1
   4    1   41 1
   5    2    3 1
   6    2    4 am
   7    2    5 2
   8    4    7 1
   9    4   42 1
  10    6    7 1
  11    6   33 1
  12    6   43 1
  13    6   44 1
  14    7    8 1
  15    7   45 1
  16    8    9 1
  17    8   24 1
  18    8   46 1
  19    9   10 1
  20    9   47 1
  21    9   48 1
  22   10   11 am
  23   10   20 1
  24   11   12 1
  25   11   18 2
  26   11   19 2
  27   12   13 ar
  28   12   17 ar
  29   13   14 ar
  30   13   49 1
  31   14   15 ar
  32   14   50 1
  33   15   16 ar
  34   15   39 1
  35   16   17 ar
  36   16   51 1
  37   17   52 1
  38   20   21 1
  39   20   53 1
  40   20   54 1
  41   21   22 1
  42   21   23 1
  43   21   55 1
  44   22   56 1
  45   22   57 1
  46   22   58 1
  47   23   59 1
  48   23   60 1
  49   23   61 1
  50   24   62 1
  51   25   26 1
  52   25   63 1
  53   25   64 1
  54   26   27 1
  55   27   28 1
  56   27   65 1
  57   27   66 1
  58   28   29 1
  59   28   67 1
  60   28   68 1
  61   29   30 1
  62   29   69 1
  63   29   70 1
  64   30   31 1
  65   30   71 1
  66   31   32 1
  67   32   72 1
  68   32   73 1
  69   32   74 1
  70   33   34 ar
  71   33   38 ar
  72   34   35 ar
  73   34   75 1
  74   35   36 ar
  75   35   76 1
  76   36   37 ar
  77   36   77 1
  78   37   38 ar
  79   37   78 1
  80   38   79 1
  81   39   40 1
  82   40   80 1
  83   40   81 1
  84   40   82 1

#	End of record

