#	Name: ASD01810452
#	Creating user name:	WinNT
#	Creation time:	15. 06. 2019 19:24

#	Modifying user name:	WinNT
#	Modification time:	15. 06. 2019 19:24

#	Program:	/corina/corina34_cracker 3.40 0067  02.08.2006

@<TRIPOS>MOLECULE
ASD01810452
  68   72    0    0    0
SMALL
NO_CHARGES


@<TRIPOS>ATOM
   1 C1            -0.2873     1.1502     0.8537 C.2     
   2 C2            -0.3041    -0.2679     0.4363 C.ar    
   3 C3             0.8712    -0.8824    -0.0032 C.ar    
   4 C4             0.8571    -2.2066    -0.3934 C.ar    
   5 C5            -0.3170    -2.9326    -0.3523 C.ar    
   6 C6            -1.4990    -2.3306     0.0850 C.ar    
   7 C7            -1.4907    -0.9961     0.4857 C.ar    
   8 O8             0.7670     1.7516     0.9207 O.2     
   9 N9            -1.4414     1.7778     1.1547 N.am    
  10 C10           -2.4950     3.9370     1.4392 C.ar    
  11 C11           -1.4179     3.0889     1.6482 C.ar    
  12 C12           -0.3117     3.5566     2.3557 C.ar    
  13 C13           -0.3317     4.8574     2.8248 C.ar    
  14 C14           -1.4471     5.6503     2.5770 C.ar    
  15 N15           -2.4803     5.1727     1.9012 N.ar    
  16 N16           -1.4773     6.9612     3.0449 N.3     
  17 C17           -2.7417     7.6245     2.6772 C.3     
  18 C18           -3.3961     8.1181     3.9847 C.3     
  19 C19           -2.1959     8.2094     4.9635 C.3     
  20 C20           -1.3347     7.0021     4.5159 C.3     
  21 C21            2.1569    -0.0979    -0.0519 C.3     
  22 C22           -2.7552    -3.1093     0.1279 C.2     
  23 O23           -3.7825    -2.6302    -0.3108 O.2     
  24 N24           -2.7611    -4.3504     0.6535 N.am    
  25 C25           -4.0170    -5.1012     0.7862 C.3     
  26 C26           -4.1646    -5.5624     2.2395 C.3     
  27 C27           -2.9167    -6.3472     2.6507 C.3     
  28 C28           -1.6873    -5.4410     2.5540 C.3     
  29 C29           -1.5109    -4.9806     1.0990 C.3     
  30 C30           -3.0730    -6.8316     4.0691 C.ar    
  31 C31           -3.0404    -8.1878     4.3412 C.ar    
  32 C32           -3.1828    -8.6382     5.6372 C.ar    
  33 C33           -3.3598    -7.7218     6.6758 C.ar    
  34 C34           -3.3913    -6.3545     6.3942 C.ar    
  35 C35           -3.2428    -5.9178     5.0941 C.ar    
  36 C36           -3.5088    -8.1821     8.0236 C.1     
  37 N37           -3.6270    -8.5473     9.0928 N.1     
  38 H38            1.7683    -2.6767    -0.7326 H       
  39 H39           -0.3212    -3.9680    -0.6592 H       
  40 H40           -2.4010    -0.5273     0.8292 H       
  41 H41           -2.2884     1.3218     1.0296 H       
  42 H42           -3.3538     3.5834     0.8880 H       
  43 H43            0.5409     2.9180     2.5336 H       
  44 H44            0.5081     5.2524     3.3771 H       
  45 H45           -2.5392     8.4711     2.0213 H       
  46 H46           -3.4010     6.9148     2.1775 H       
  47 H47           -3.8520     9.0978     3.8415 H       
  48 H48           -4.1318     7.3982     4.3431 H       
  49 H49           -1.6542     9.1459     4.8308 H       
  50 H50           -2.5245     8.0931     5.9962 H       
  51 H51           -1.7127     6.0810     4.9596 H       
  52 H52           -0.2916     7.1569     4.7919 H       
  53 H53            2.6137    -0.0872     0.9378 H       
  54 H54            2.8400    -0.5635    -0.7623 H       
  55 H55            1.9471     0.9245    -0.3662 H       
  56 H56           -4.8565    -4.4591     0.5195 H       
  57 H57           -3.9949    -5.9695     0.1277 H       
  58 H58           -4.2776    -4.6931     2.8874 H       
  59 H59           -5.0428    -6.2014     2.3310 H       
  60 H60           -2.7906    -7.2025     1.9869 H       
  61 H61           -1.8235    -4.5728     3.1989 H       
  62 H62           -0.8023    -5.9936     2.8693 H       
  63 H63           -1.2886    -5.8393     0.4655 H       
  64 H64           -0.6962    -4.2589     1.0388 H       
  65 H65           -2.9034    -8.8955     3.5369 H       
  66 H66           -3.1579    -9.6971     5.8481 H       
  67 H67           -3.5279    -5.6404     7.1928 H       
  68 H68           -3.2629    -4.8604     4.8754 H       
@<TRIPOS>BOND
   1    1    2 1
   2    1    8 2
   3    1    9 am
   4    2    3 ar
   5    2    7 ar
   6    3    4 ar
   7    3   21 1
   8    4    5 ar
   9    4   38 1
  10    5    6 ar
  11    5   39 1
  12    6    7 ar
  13    6   22 1
  14    7   40 1
  15    9   11 1
  16    9   41 1
  17   10   11 ar
  18   10   15 ar
  19   10   42 1
  20   11   12 ar
  21   12   13 ar
  22   12   43 1
  23   13   14 ar
  24   13   44 1
  25   14   15 ar
  26   14   16 1
  27   16   17 1
  28   16   20 1
  29   17   18 1
  30   17   45 1
  31   17   46 1
  32   18   19 1
  33   18   47 1
  34   18   48 1
  35   19   20 1
  36   19   49 1
  37   19   50 1
  38   20   51 1
  39   20   52 1
  40   21   53 1
  41   21   54 1
  42   21   55 1
  43   22   23 2
  44   22   24 am
  45   24   25 1
  46   24   29 1
  47   25   26 1
  48   25   56 1
  49   25   57 1
  50   26   27 1
  51   26   58 1
  52   26   59 1
  53   27   28 1
  54   27   30 1
  55   27   60 1
  56   28   29 1
  57   28   61 1
  58   28   62 1
  59   29   63 1
  60   29   64 1
  61   30   31 ar
  62   30   35 ar
  63   31   32 ar
  64   31   65 1
  65   32   33 ar
  66   32   66 1
  67   33   34 ar
  68   33   36 1
  69   34   35 ar
  70   34   67 1
  71   35   68 1
  72   36   37 3

#	End of record

