#	Name: ASD09116055
#	Creating user name:	WinNT
#	Creation time:	15. 06. 2019 21:20

#	Modifying user name:	WinNT
#	Modification time:	15. 06. 2019 21:20

#	Program:	/corina/corina34_cracker 3.40 0067  02.08.2006

@<TRIPOS>MOLECULE
ASD09116055
  65   69    0    0    0
SMALL
NO_CHARGES


@<TRIPOS>ATOM
   1 C1            -0.0572     1.4415    -0.2429 C.ar    
   2 C2            -0.0331     0.0395    -0.3154 C.ar    
   3 N3             1.1222    -0.5875    -0.4893 N.ar    
   4 C4             2.2458     0.0914    -0.5959 C.ar    
   5 N5             2.2630     1.4031    -0.5098 N.ar    
   6 C6             1.1467     2.1018    -0.3165 C.ar    
   7 C7             1.2766     3.5898    -0.1373 C.3     
   8 C8             0.9619     4.3466    -1.4237 C.3     
   9 C9            -0.1334     3.6988    -2.2579 C.3     
  10 C10           -1.3713     4.1739    -1.4934 C.3     
  11 C11           -1.5189     3.6303    -0.0611 C.3     
  12 C12           -1.4021     2.1026    -0.1441 C.3     
  13 N13           -1.2147    -0.6905    -0.2050 N.pl3   
  14 N14           -2.5082    -0.1760    -0.0196 N.2     
  15 C15           -3.3247    -1.2007     0.0311 C.2     
  16 N16           -2.6212    -2.3302    -0.1116 N.2     
  17 C17           -1.3460    -2.0428    -0.2613 C.2     
  18 N18           -0.3216    -2.9533    -0.4348 N.pl3   
  19 N19           -4.7062    -1.1256     0.2065 N.pl3   
  20 C20           -5.4856    -2.2858     0.1300 C.ar    
  21 C21           -6.6628    -2.3815     0.8606 C.ar    
  22 C22           -7.4313    -3.5263     0.7841 C.ar    
  23 C23           -7.0277    -4.5805    -0.0221 C.ar    
  24 C24           -5.8518    -4.4860    -0.7518 C.ar    
  25 C25           -5.0850    -3.3397    -0.6810 C.ar    
  26 O26           -7.7851    -5.7075    -0.0968 O.3     
  27 C27           -7.3097    -6.7536    -0.9464 C.3     
  28 C28           -8.2862    -7.9305    -0.9015 C.3     
  29 N29           -9.5749    -7.5197    -1.4747 N.3     
  30 C30          -10.4617    -8.6817    -1.6681 C.3     
  31 C31          -11.7639    -8.3974    -0.8905 C.3     
  32 C32          -11.7681    -6.8508    -0.7693 C.3     
  33 C33          -10.2590    -6.5464    -0.5970 C.3     
  34 H34            3.1708    -0.4405    -0.7605 H       
  35 H35            0.7195     3.9459     0.7041 H       
  36 H36            2.3433     3.7868     0.0919 H       
  37 H37            0.6591     5.3624    -1.1643 H       
  38 H38            1.8739     4.4041    -2.0224 H       
  39 H39           -0.1338     4.0846    -3.2846 H       
  40 H40           -0.0569     2.6104    -2.2695 H       
  41 H41           -1.3478     5.2599    -1.4398 H       
  42 H42           -2.2545     3.8754    -2.0557 H       
  43 H43           -0.8334     4.0728     0.6228 H       
  44 H44           -2.5429     3.8673     0.2765 H       
  45 H45           -1.9879     1.7864    -1.0089 H       
  46 H46           -1.8992     1.7015     0.7417 H       
  47 H47           -0.5154    -3.9036    -0.4539 H       
  48 H48            0.5914    -2.6423    -0.5375 H       
  49 H49           -5.1270    -0.2693     0.3816 H       
  50 H50           -6.9769    -1.5610     1.4886 H       
  51 H51           -8.3466    -3.6011     1.3525 H       
  52 H52           -5.5380    -5.3076    -1.3787 H       
  53 H53           -4.1695    -3.2663    -1.2492 H       
  54 H54           -7.2326    -6.3842    -1.9690 H       
  55 H55           -6.3286    -7.0822    -0.6038 H       
  56 H56           -7.8804    -8.7616    -1.4784 H       
  57 H57           -8.4316    -8.2428     0.1326 H       
  58 H58          -10.6826    -8.8072    -2.7281 H       
  59 H59           -9.9852    -9.5808    -1.2774 H       
  60 H60          -12.6317    -8.7423    -1.4528 H       
  61 H61          -11.7331    -8.8612     0.0955 H       
  62 H62          -12.1585    -6.3891    -1.6762 H       
  63 H63          -12.3336    -6.5292     0.1053 H       
  64 H64           -9.9581    -6.6938     0.4402 H       
  65 H65          -10.0386    -5.5276    -0.9158 H       
@<TRIPOS>BOND
   1    1    2 ar
   2    1    6 ar
   3    1   12 1
   4    2    3 ar
   5    2   13 1
   6    3    4 ar
   7    4    5 ar
   8    4   34 1
   9    5    6 ar
  10    6    7 1
  11    7    8 1
  12    7   35 1
  13    7   36 1
  14    8    9 1
  15    8   37 1
  16    8   38 1
  17    9   10 1
  18    9   39 1
  19    9   40 1
  20   10   11 1
  21   10   41 1
  22   10   42 1
  23   11   12 1
  24   11   43 1
  25   11   44 1
  26   12   45 1
  27   12   46 1
  28   13   14 1
  29   13   17 1
  30   14   15 2
  31   15   16 1
  32   15   19 1
  33   16   17 2
  34   17   18 1
  35   18   47 1
  36   18   48 1
  37   19   20 1
  38   19   49 1
  39   20   21 ar
  40   20   25 ar
  41   21   22 ar
  42   21   50 1
  43   22   23 ar
  44   22   51 1
  45   23   24 ar
  46   23   26 1
  47   24   25 ar
  48   24   52 1
  49   25   53 1
  50   26   27 1
  51   27   28 1
  52   27   54 1
  53   27   55 1
  54   28   29 1
  55   28   56 1
  56   28   57 1
  57   29   30 1
  58   29   33 1
  59   30   31 1
  60   30   58 1
  61   30   59 1
  62   31   32 1
  63   31   60 1
  64   31   61 1
  65   32   33 1
  66   32   62 1
  67   32   63 1
  68   33   64 1
  69   33   65 1

#	End of record

