#	Name: ASD05313010
#	Creating user name:	WinNT
#	Creation time:	15. 06. 2019 20:58

#	Modifying user name:	WinNT
#	Modification time:	15. 06. 2019 20:58

#	Program:	/corina/corina34_cracker 3.40 0067  02.08.2006

@<TRIPOS>MOLECULE
ASD05313010
  29   31    0    0    0
SMALL
NO_CHARGES


@<TRIPOS>ATOM
   1 C1            -0.0728     0.8179     1.0208 C.2     
   2 C2             0.1133    -0.6182     0.5944 C.3     
   3 N3             0.9356     1.7357     1.0471 N.pl3   
   4 N4             1.4572    -0.7170    -0.0064 N.am    
   5 C5             2.5715    -0.0365     0.6706 C.3     
   6 C6             2.3216     1.4764     0.6617 C.3     
   7 N7            -0.8894     2.6443     1.7003 N.2     
   8 N8            -1.1523     1.4134     1.4222 N.2     
   9 C9             0.3793     2.8882     1.4876 C.2     
  10 C10            1.6582    -1.4118    -1.1436 C.2     
  11 O11            2.7502    -1.4008    -1.6777 O.2     
  12 C12            0.5512    -2.1869    -1.7413 C.ar    
  13 C13            0.3199    -2.1328    -3.1181 C.ar    
  14 C14           -0.7177    -2.8607    -3.6697 C.ar    
  15 C15           -1.5256    -3.6407    -2.8604 C.ar    
  16 C16           -1.3008    -3.6972    -1.4963 C.ar    
  17 C17           -0.2647    -2.9811    -0.9337 C.ar    
  18 Cl18          -1.0084    -2.7962    -5.3799 Cl      
  19 Cl19           1.3323    -1.1537    -4.1331 Cl      
  20 Br20           1.2672     4.5369     1.7508 Br      
  21 H21            0.0439    -1.2757     1.4609 H       
  22 H22           -0.6440    -0.8892    -0.1413 H       
  23 H23            2.6408    -0.3878     1.7001 H       
  24 H24            3.5026    -0.2546     0.1476 H       
  25 H25            2.5010     1.8693    -0.3391 H       
  26 H26            2.9935     1.9608     1.3702 H       
  27 H27           -2.3353    -4.2075    -3.2957 H       
  28 H28           -1.9353    -4.3076    -0.8709 H       
  29 H29           -0.0883    -3.0306     0.1307 H       
@<TRIPOS>BOND
   1    1    2 1
   2    1    3 1
   3    1    8 2
   4    2    4 1
   5    2   21 1
   6    2   22 1
   7    3    6 1
   8    3    9 1
   9    4    5 1
  10    4   10 am
  11    5    6 1
  12    5   23 1
  13    5   24 1
  14    6   25 1
  15    6   26 1
  16    7    8 1
  17    7    9 2
  18    9   20 1
  19   10   11 2
  20   10   12 1
  21   12   13 ar
  22   12   17 ar
  23   13   14 ar
  24   13   19 1
  25   14   15 ar
  26   14   18 1
  27   15   16 ar
  28   15   27 1
  29   16   17 ar
  30   16   28 1
  31   17   29 1

#	End of record

