#	Name: ASD01180193
#	Creating user name:	WinNT
#	Creation time:	15. 06. 2019 19:06

#	Modifying user name:	WinNT
#	Modification time:	15. 06. 2019 19:06

#	Program:	/corina/corina34_cracker 3.40 0067  02.08.2006

@<TRIPOS>MOLECULE
ASD01180193
  58   60    0    0    0
SMALL
NO_CHARGES


@<TRIPOS>ATOM
   1 C1            -2.4211    -2.1894     6.1811 C.2     
   2 C2            -1.9836    -3.0692     5.0384 C.3     
   3 C3            -0.5830    -3.6155     5.3227 C.3     
   4 O4            -1.6879    -2.0170     7.1258 O.2     
   5 O5            -3.6230    -1.5929     6.1467 O.3     
   6 C6             1.0514    -5.0653     4.2439 C.2     
   7 C7             1.4798    -5.9267     3.1252 C.ar    
   8 C8             2.7367    -6.5507     3.1481 C.ar    
   9 C9             3.0927    -7.3410     2.0891 C.ar    
  10 C10            2.2043    -7.5022     1.0270 C.ar    
  11 N11            1.0225    -6.9008     1.0300 N.ar    
  12 C12            0.6385    -6.1373     2.0318 C.ar    
  13 O13            1.7893    -4.8918     5.1946 O.2     
  14 N14           -0.1577    -4.4708     4.2119 N.am    
  15 N15            2.5610    -8.3010    -0.0461 N.pl3   
  16 C16            3.9093    -8.8693    -0.1199 C.3     
  17 C17            4.2722    -9.1330    -1.5827 C.3     
  18 C18            4.3521    -7.8037    -2.3360 C.3     
  19 C19            4.0286   -12.5439     2.0624 C.ar    
  20 C20            5.0996   -11.6552     2.1305 C.ar    
  21 C21            5.0556   -10.4702     1.4241 C.ar    
  22 C22            3.9513   -10.1645     0.6494 C.ar    
  23 C23            2.8851   -11.0429     0.5786 C.ar    
  24 C24            2.9185   -12.2306     1.2807 C.ar    
  25 C25            4.0728   -13.8222     2.8147 C.ar    
  26 C26            3.0018   -14.7110     2.7466 C.ar    
  27 C27            3.0482   -15.8985     3.4484 C.ar    
  28 C28            4.1550   -16.2068     4.2187 C.ar    
  29 C29            5.2208   -15.3280     4.2902 C.ar    
  30 C30            5.1878   -14.1407     3.5872 C.ar    
  31 C31            4.1996   -17.5048     4.9831 C.3     
  32 F32            4.7710   -18.4988     4.1814 F       
  33 F33            4.9693   -17.3387     6.1395 F       
  34 F34            2.9000   -17.8818     5.3381 F       
  35 H35           -2.6822    -3.8989     4.9306 H       
  36 H36           -1.9663    -2.4867     4.1173 H       
  37 H37            0.1157    -2.7858     5.4306 H       
  38 H38           -0.6002    -4.1980     6.2438 H       
  39 H39           -3.8595    -1.0380     6.9025 H       
  40 H40            3.4079    -6.4101     3.9825 H       
  41 H41            4.0531    -7.8349     2.0761 H       
  42 H42           -0.3331    -5.6664     2.0048 H       
  43 H43           -0.7463    -4.6092     3.4535 H       
  44 H44            1.9183    -8.4843    -0.7491 H       
  45 H45            4.6235    -8.1675     0.3108 H       
  46 H46            5.2372    -9.6374    -1.6324 H       
  47 H47            3.5088    -9.7636    -2.0385 H       
  48 H48            4.5320    -7.9958    -3.3937 H       
  49 H49            3.4128    -7.2631    -2.2195 H       
  50 H50            5.1683    -7.2053    -1.9313 H       
  51 H51            5.9623   -11.8929     2.7351 H       
  52 H52            5.8852    -9.7806     1.4762 H       
  53 H53            2.0252   -10.7990    -0.0276 H       
  54 H54            2.0858   -12.9161     1.2242 H       
  55 H55            2.1369   -14.4709     2.1461 H       
  56 H56            2.2187   -16.5881     3.3964 H       
  57 H57            6.0823   -15.5736     4.8934 H       
  58 H58            6.0227   -13.4576     3.6396 H       
@<TRIPOS>BOND
   1    1    2 1
   2    1    4 2
   3    1    5 1
   4    2    3 1
   5    2   35 1
   6    2   36 1
   7    3   14 1
   8    3   37 1
   9    3   38 1
  10    5   39 1
  11    6    7 1
  12    6   13 2
  13    6   14 am
  14    7    8 ar
  15    7   12 ar
  16    8    9 ar
  17    8   40 1
  18    9   10 ar
  19    9   41 1
  20   10   11 ar
  21   10   15 1
  22   11   12 ar
  23   12   42 1
  24   14   43 1
  25   15   16 1
  26   15   44 1
  27   16   17 1
  28   16   22 1
  29   16   45 1
  30   17   18 1
  31   17   46 1
  32   17   47 1
  33   18   48 1
  34   18   49 1
  35   18   50 1
  36   19   20 ar
  37   19   24 ar
  38   19   25 1
  39   20   21 ar
  40   20   51 1
  41   21   22 ar
  42   21   52 1
  43   22   23 ar
  44   23   24 ar
  45   23   53 1
  46   24   54 1
  47   25   26 ar
  48   25   30 ar
  49   26   27 ar
  50   26   55 1
  51   27   28 ar
  52   27   56 1
  53   28   29 ar
  54   28   31 1
  55   29   30 ar
  56   29   57 1
  57   30   58 1
  58   31   32 1
  59   31   33 1
  60   31   34 1

#	End of record

