#	Name: ASD02560412
#	Creating user name:	WinNT
#	Creation time:	15. 06. 2019 20:25

#	Modifying user name:	WinNT
#	Modification time:	15. 06. 2019 20:25

#	Program:	/corina/corina34_cracker 3.40 0067  02.08.2006

@<TRIPOS>MOLECULE
ASD02560412
  43   46    0    0    0
SMALL
NO_CHARGES


@<TRIPOS>ATOM
   1 C1             0.0967     0.9534     1.1004 C.2     
   2 C2             0.2529    -0.4449     1.1158 C.2     
   3 C3             1.4415    -1.0011     0.8044 C.2     
   4 N4             2.5128    -0.2153     0.4691 N.pl3   
   5 C5             2.3901     1.1548     0.4455 C.2     
   6 C6             1.1502     1.7476     0.7698 C.2     
   7 C7             3.8000    -0.5148     0.1190 C.2     
   8 C8             4.4402     0.6849    -0.1124 C.2     
   9 N9             3.5545     1.6762     0.0951 N.2     
  10 C10            5.8554     0.8525    -0.5179 C.ar    
  11 N11            4.3588    -1.7891     0.0160 N.3     
  12 C12            3.3301    -2.8281     0.1581 C.3     
  13 C13            3.8062    -4.1135    -0.5216 C.3     
  14 C14            6.8616     0.1533     0.1472 C.ar    
  15 C15            3.0804    -3.0989     1.6431 C.3     
  16 C16            2.0090    -4.1810     1.7911 C.3     
  17 C17            2.4851    -5.4664     1.1114 C.3     
  18 C18            6.1861     1.7066    -1.5713 C.ar    
  19 C19            2.7348    -5.1956    -0.3736 C.3     
  20 C20            8.1781     0.3131    -0.2353 C.ar    
  21 C21            8.5008     1.1648    -1.2764 C.ar    
  22 C22            7.5068     1.8578    -1.9444 C.ar    
  23 Cl23           4.9398     2.5761    -2.4105 Cl      
  24 Cl24           0.9720     3.4743     0.7461 Cl      
  25 Cl25          -1.0910    -1.4594     1.5382 Cl      
  26 H26           -0.8580     1.3945     1.3461 H       
  27 H27            1.5500    -2.0755     0.8198 H       
  28 H28            4.8615    -1.8944    -0.8525 H       
  29 H29            2.4055    -2.4905    -0.3101 H       
  30 H30            3.9841    -3.9206    -1.5796 H       
  31 H31            4.7308    -4.4511    -0.0534 H       
  32 H32            6.6115    -0.5118     0.9605 H       
  33 H33            4.0050    -3.4365     2.1114 H       
  34 H34            2.7412    -2.1831     2.1274 H       
  35 H35            1.8311    -4.3739     2.8491 H       
  36 H36            1.0844    -3.8434     1.3229 H       
  37 H37            3.4096    -5.8041     1.5796 H       
  38 H38            1.7218    -6.2373     1.2168 H       
  39 H39            1.8102    -4.8580    -0.8419 H       
  40 H40            3.0739    -6.1114    -0.8579 H       
  41 H41            8.9582    -0.2278     0.2796 H       
  42 H42            9.5325     1.2863    -1.5718 H       
  43 H43            7.7649     2.5211    -2.7567 H       
@<TRIPOS>BOND
   1    1    2 1
   2    1    6 2
   3    1   26 1
   4    2    3 2
   5    2   25 1
   6    3    4 1
   7    3   27 1
   8    4    5 1
   9    4    7 1
  10    5    6 1
  11    5    9 2
  12    6   24 1
  13    7    8 2
  14    7   11 1
  15    8    9 1
  16    8   10 1
  17   10   14 ar
  18   10   18 ar
  19   11   12 1
  20   11   28 1
  21   12   13 1
  22   12   15 1
  23   12   29 1
  24   13   19 1
  25   13   30 1
  26   13   31 1
  27   14   20 ar
  28   14   32 1
  29   15   16 1
  30   15   33 1
  31   15   34 1
  32   16   17 1
  33   16   35 1
  34   16   36 1
  35   17   19 1
  36   17   37 1
  37   17   38 1
  38   18   23 1
  39   18   22 ar
  40   19   39 1
  41   19   40 1
  42   20   21 ar
  43   20   41 1
  44   21   22 ar
  45   21   42 1
  46   22   43 1

#	End of record

