#	Name: ASD01811686
#	Creating user name:	WinNT
#	Creation time:	15. 06. 2019 19:27

#	Modifying user name:	WinNT
#	Modification time:	15. 06. 2019 19:27

#	Program:	/corina/corina34_cracker 3.40 0067  02.08.2006

@<TRIPOS>MOLECULE
ASD01811686
  64   67    0    0    0
SMALL
NO_CHARGES


@<TRIPOS>ATOM
   1 C1            -0.0167     1.3805     0.0096 C.ar    
   2 C2             0.0021    -0.0041     0.0020 C.ar    
   3 C3            -1.1845    -0.7161     0.0090 C.ar    
   4 C4            -2.3942    -0.0535     0.0241 C.ar    
   5 C5            -2.4213     1.3425     0.0323 C.ar    
   6 C6            -1.2177     2.0512     0.0304 C.ar    
   7 C7             1.2777     2.1522     0.0014 C.3     
   8 C8             1.3184    -0.7376    -0.0144 C.3     
   9 C9            -1.1549    -2.2228    -0.0004 C.3     
  10 C10           -1.0078    -2.7311     1.4107 C.ar    
  11 C11           -2.1340    -2.9877     2.1716 C.ar    
  12 C12           -2.0049    -3.4538     3.4644 C.ar    
  13 C13           -0.7375    -3.6658     4.0024 C.ar    
  14 C14            0.3934    -3.4057     3.2316 C.ar    
  15 C15            0.2529    -2.9448     1.9382 C.ar    
  16 C16           -0.5926    -4.1665     5.3924 C.2     
  17 N17           -1.5840    -4.4607     6.2524 N.2     
  18 N18           -1.0666    -4.8649     7.3583 N.2     
  19 N19            0.2178    -4.8568     7.2839 N.pl3   
  20 C20            0.5735    -4.4266     6.0524 C.2     
  21 C21           -3.5309     2.3149     0.0477 C.2     
  22 N22           -3.0504     3.5703     0.0501 N.am    
  23 C23           -1.5841     3.5142     0.0402 C.3     
  24 C24            1.1395    -5.2532     8.3515 C.3     
  25 C25           -3.8575     4.7928     0.0640 C.3     
  26 O26           -4.7107     2.0226     0.0563 O.2     
  27 H27           -3.3180    -0.6130     0.0291 H       
  28 H28            1.5800     2.3437    -1.0282 H       
  29 H29            1.1390     3.0999     0.5217 H       
  30 H30            2.0504     1.5710     0.5048 H       
  31 H31            1.6456    -0.9199     1.0092 H       
  32 H32            1.1977    -1.6891    -0.5323 H       
  33 H33            2.0641    -0.1342    -0.5322 H       
  34 H34           -2.0831    -2.6018    -0.4281 H       
  35 H35           -0.3118    -2.5659    -0.5999 H       
  36 H36           -3.1160    -2.8227     1.7536 H       
  37 H37           -2.8849    -3.6535     4.0578 H       
  38 H38            1.3783    -3.5683     3.6439 H       
  39 H39            1.1289    -2.7432     1.3396 H       
  40 H40            1.5767    -4.3063     5.6710 H       
  41 H41           -1.1849     3.9949     0.9333 H       
  42 H42           -1.1966     4.0028    -0.8538 H       
  43 H43            1.3544    -6.3186     8.2690 H       
  44 H44            2.0666    -4.6873     8.2597 H       
  45 H45            0.6832    -5.0485     9.3200 H       
  46 H46           -4.9152     4.5298     0.0727 H       
  47 H47           -3.6204     5.3746     0.9548 H       
  48 H48           -3.6373     5.3837    -0.8250 H       
  49 C49            9.5546    13.2281    15.2401 C.3     
  50 O50            9.5740    11.7958    15.2322 O.3     
  51 C51            8.9625    11.2903    16.4297 C.3     
  52 C52            8.0101    12.4166    16.9041 C.3     
  53 C53            8.8357    13.6778    16.5302 C.3     
  54 C54           10.9867    13.7666    15.2293 C.3     
  55 H55            9.0150    13.5953    14.3672 H       
  56 H56            8.3976    10.3837    16.2123 H       
  57 H57            9.7208    11.0920    17.1871 H       
  58 H58            7.0666    12.3888    16.3590 H       
  59 H59            7.8420    12.3618    17.9797 H       
  60 H60            9.5560    13.9160    17.3128 H       
  61 H61            8.1802    14.5262    16.3333 H       
  62 H62           11.4909    13.4397    14.3200 H       
  63 H63           10.9654    14.8559    15.2615 H       
  64 H64           11.5238    13.3879    16.0989 H       
@<TRIPOS>BOND
   1    1    2 ar
   2    1    7 1
   3    1    6 ar
   4    2    3 ar
   5    2    8 1
   6    3    4 ar
   7    3    9 1
   8    4    5 ar
   9    4   27 1
  10    5    6 ar
  11    5   21 1
  12    6   23 1
  13    7   28 1
  14    7   29 1
  15    7   30 1
  16    8   31 1
  17    8   32 1
  18    8   33 1
  19    9   10 1
  20    9   34 1
  21    9   35 1
  22   10   11 ar
  23   10   15 ar
  24   11   12 ar
  25   11   36 1
  26   12   13 ar
  27   12   37 1
  28   13   14 ar
  29   13   16 1
  30   14   15 ar
  31   14   38 1
  32   15   39 1
  33   16   17 1
  34   16   20 2
  35   17   18 2
  36   18   19 1
  37   19   20 1
  38   19   24 1
  39   20   40 1
  40   21   22 am
  41   21   26 2
  42   22   23 1
  43   22   25 1
  44   23   41 1
  45   23   42 1
  46   24   43 1
  47   24   44 1
  48   24   45 1
  49   25   46 1
  50   25   47 1
  51   25   48 1
  52   49   50 1
  53   49   54 1
  54   49   53 1
  55   49   55 1
  56   50   51 1
  57   51   52 1
  58   51   56 1
  59   51   57 1
  60   52   53 1
  61   52   58 1
  62   52   59 1
  63   53   60 1
  64   53   61 1
  65   54   62 1
  66   54   63 1
  67   54   64 1

#	End of record

