#	Name: ASD01730048
#	Creating user name:	WinNT
#	Creation time:	15. 06. 2019 19:23

#	Modifying user name:	WinNT
#	Modification time:	15. 06. 2019 19:23

#	Program:	/corina/corina34_cracker 3.40 0067  02.08.2006

@<TRIPOS>MOLECULE
ASD01730048
  24   25    0    0    0
SMALL
NO_CHARGES


@<TRIPOS>ATOM
   1 N1            -0.0166     1.3749     0.0096 N.pl3   
   2 C2             0.0021    -0.0041     0.0020 C.2     
   3 N3            -1.1791    -0.7076     0.0095 N.pl3   
   4 N4             1.1389    -0.6400    -0.0123 N.2     
   5 S5             2.4823     4.2292     0.9834 S.3     
   6 C6             1.0892     3.5805     0.0109 C.3     
   7 C7             1.1641     2.0781     0.0021 C.2     
   8 N8             2.2586     1.4127    -0.0115 N.2     
   9 C9             3.5262     1.9095    -0.0223 C.ar    
  10 C10            3.8083     3.2127     0.4142 C.ar    
  11 C11            4.5780     1.1092    -0.4762 C.ar    
  12 C12            5.8671     1.6006    -0.4877 C.ar    
  13 C13            6.1342     2.8865    -0.0525 C.ar    
  14 C14            5.1046     3.6939     0.3982 C.ar    
  15 H15           -0.8632     1.8484     0.0162 H       
  16 H16           -2.0256    -0.2341     0.0201 H       
  17 H17           -1.1659    -1.6775     0.0042 H       
  18 H18            1.1520    -1.6099    -0.0176 H       
  19 H19            0.1491     3.8972     0.4626 H       
  20 H20            1.1508     3.9551    -1.0109 H       
  21 H21            4.3814     0.1039    -0.8183 H       
  22 H22            6.6749     0.9759    -0.8392 H       
  23 H23            7.1472     3.2605    -0.0647 H       
  24 H24            5.3132     4.6979     0.7370 H       
@<TRIPOS>BOND
   1    1    2 1
   2    1    7 1
   3    1   15 1
   4    2    3 1
   5    2    4 2
   6    3   16 1
   7    3   17 1
   8    4   18 1
   9    5    6 1
  10    5   10 1
  11    6    7 1
  12    6   19 1
  13    6   20 1
  14    7    8 2
  15    8    9 1
  16    9   10 ar
  17    9   11 ar
  18   10   14 ar
  19   11   12 ar
  20   11   21 1
  21   12   13 ar
  22   12   22 1
  23   13   14 ar
  24   13   23 1
  25   14   24 1

#	End of record

