#	Name: ASD08170358
#	Creating user name:	WinNT
#	Creation time:	15. 06. 2019 21:17

#	Modifying user name:	WinNT
#	Modification time:	15. 06. 2019 21:17

#	Program:	/corina/corina34_cracker 3.40 0067  02.08.2006

@<TRIPOS>MOLECULE
ASD08170358
  65   68    0    0    0
SMALL
NO_CHARGES


@<TRIPOS>ATOM
   1 C1            -0.0155     1.2910     0.0091 C.2     
   2 N2             0.0021    -0.0041     0.0020 N.2     
   3 N3            -1.1192    -0.5842     0.0096 N.2     
   4 C4            -2.1834     0.1604     0.0237 C.2     
   5 S5            -1.7028     1.8047     0.0357 S.3     
   6 C6             1.1892     2.1964     0.0025 C.3     
   7 C7             2.8059     3.4301    -1.4489 C.3     
   8 C8             3.1936     3.7400    -2.8718 C.2     
   9 C9             4.3448     4.6111    -3.3336 C.3     
  10 C10            4.2435     4.5536    -4.8451 C.2     
  11 N11            3.2216     3.7886    -5.1026 N.2     
  12 N12            2.6155     3.3126    -3.9447 N.2     
  13 N13            5.0614     5.1801    -5.7560 N.am    
  14 C14            4.8391     5.0293    -7.0767 C.2     
  15 O15            3.9180     4.3411    -7.4618 O.2     
  16 C16            5.7354     5.7158    -8.0749 C.3     
  17 C17            7.1500     5.1427    -7.9689 C.3     
  18 N18           -3.4954    -0.3008     0.0334 N.am    
  19 C19           -3.7441    -1.6254     0.0287 C.2     
  20 O20           -2.8238    -2.4152     0.0161 O.2     
  21 C21           -5.1658    -2.1251     0.0391 C.3     
  22 C22           -5.8611    -1.7123    -1.2597 C.3     
  23 C23            8.0731     5.9118    -8.8786 C.ar    
  24 C24           -8.2478    -1.2200    -0.6887 C.ar    
  25 C25           -7.3149    -2.1040    -1.1977 C.ar    
  26 C26            8.7387     7.0270    -8.4053 C.ar    
  27 C27           -9.5815    -1.5793    -0.6319 C.ar    
  28 C28           -9.9822    -2.8226    -1.0840 C.ar    
  29 C29           -9.0493    -3.7065    -1.5934 C.ar    
  30 C30           -7.7157    -3.3472    -1.6502 C.ar    
  31 C31            8.2585     5.4987   -10.1847 C.ar    
  32 C32            9.1053     6.2042   -11.0191 C.ar    
  33 C33            9.7662     7.3230   -10.5476 C.ar    
  34 C34            9.5854     7.7325    -9.2397 C.ar    
  35 O35           -5.1691    -3.5499     0.1491 O.3     
  36 O36            5.2317     5.5002    -9.3947 O.3     
  37 C37            1.5828     2.5110    -1.4422 C.3     
  38 H38            0.9501     3.1232     0.5240 H       
  39 H39            2.0193     1.7002     0.5054 H       
  40 H40            3.6360     2.9340    -0.9460 H       
  41 H41            2.5668     4.3569    -0.9274 H       
  42 H42            4.2191     5.6340    -2.9787 H       
  43 H43            5.2966     4.2006    -2.9964 H       
  44 H44            5.7982     5.7306    -5.4480 H       
  45 H45            5.7601     6.7853    -7.8657 H       
  46 H46            7.5002     5.2272    -6.9402 H       
  47 H47            7.1400     4.0935    -8.2643 H       
  48 H48           -4.2314     0.3309     0.0435 H       
  49 H49           -5.6963    -1.6940     0.8881 H       
  50 H50           -5.7808    -0.6328    -1.3876 H       
  51 H51           -5.3851    -2.2143    -2.1021 H       
  52 H52           -7.9341    -0.2503    -0.3314 H       
  53 H53            8.5970     7.3474    -7.3837 H       
  54 H54          -10.3103    -0.8887    -0.2339 H       
  55 H55          -11.0240    -3.1036    -1.0389 H       
  56 H56           -9.3624    -4.6779    -1.9466 H       
  57 H57           -6.9869    -4.0378    -2.0479 H       
  58 H58            7.7422     4.6246   -10.5531 H       
  59 H59            9.2507     5.8810   -12.0393 H       
  60 H60           10.4280     7.8739   -11.1994 H       
  61 H61           10.1018     8.6066    -8.8713 H       
  62 H62           -4.7133    -4.0013    -0.5745 H       
  63 H63            5.1819     4.5686    -9.6493 H       
  64 H64            1.8219     1.5842    -1.9637 H       
  65 H65            0.7527     3.0071    -1.9450 H       
@<TRIPOS>BOND
   1    1    2 2
   2    1    6 1
   3    1    5 1
   4    2    3 1
   5    3    4 2
   6    4    5 1
   7    4   18 1
   8    6   37 1
   9    6   38 1
  10    6   39 1
  11    7    8 1
  12    7   37 1
  13    7   40 1
  14    7   41 1
  15    8    9 1
  16    8   12 2
  17    9   10 1
  18    9   42 1
  19    9   43 1
  20   10   11 2
  21   10   13 1
  22   11   12 1
  23   13   14 am
  24   13   44 1
  25   14   15 2
  26   14   16 1
  27   16   17 1
  28   16   36 1
  29   16   45 1
  30   17   23 1
  31   17   46 1
  32   17   47 1
  33   18   19 am
  34   18   48 1
  35   19   20 2
  36   19   21 1
  37   21   22 1
  38   21   35 1
  39   21   49 1
  40   22   25 1
  41   22   50 1
  42   22   51 1
  43   23   26 ar
  44   23   31 ar
  45   24   25 ar
  46   24   27 ar
  47   24   52 1
  48   25   30 ar
  49   26   34 ar
  50   26   53 1
  51   27   28 ar
  52   27   54 1
  53   28   29 ar
  54   28   55 1
  55   29   30 ar
  56   29   56 1
  57   30   57 1
  58   31   32 ar
  59   31   58 1
  60   32   33 ar
  61   32   59 1
  62   33   34 ar
  63   33   60 1
  64   34   61 1
  65   35   62 1
  66   36   63 1
  67   37   64 1
  68   37   65 1

#	End of record

