#	Name: ASD02508244
#	Creating user name:	WinNT
#	Creation time:	15. 06. 2019 20:24

#	Modifying user name:	WinNT
#	Modification time:	15. 06. 2019 20:24

#	Program:	/corina/corina34_cracker 3.40 0067  02.08.2006

@<TRIPOS>MOLECULE
ASD02508244
  38   41    0    0    0
SMALL
NO_CHARGES


@<TRIPOS>ATOM
   1 C1             0.2509     1.1217     0.3843 C.ar    
   2 C2             0.1797    -0.2707     0.3521 C.ar    
   3 C3            -1.0549    -0.8938     0.2572 C.ar    
   4 C4            -2.2069    -0.1343     0.1950 C.ar    
   5 C5            -2.1351     1.2476     0.2266 C.ar    
   6 C6            -0.9098     1.8773     0.3266 C.ar    
   7 S7            -3.7752    -0.9283     0.0744 S.o2    
   8 N8            -4.3171    -1.1803     1.6188 N.am    
   9 C9            -4.5218    -0.0980     2.4698 C.ar    
  10 N10            1.6030     1.4495     0.4813 N.am    
  11 C11            2.2988     0.2955     0.5051 C.2     
  12 O12            1.4490    -0.7406     0.4278 O.3     
  13 O13           -4.6595     0.0169    -0.5119 O.2     
  14 O14           -3.5325    -2.2138    -0.4804 O.2     
  15 C15            2.1644     2.8011     0.5455 C.3     
  16 O16            3.5090     0.2067     0.5844 O.2     
  17 C17           -4.2408    -0.2120     3.8479 C.ar    
  18 C18           -4.9961     1.0985     1.9735 C.ar    
  19 C19           -5.2030     2.1840     2.8184 C.ar    
  20 C20           -4.9449     2.0980     4.1526 C.ar    
  21 C21           -4.4552     0.8996     4.6993 C.ar    
  22 N22           -4.1956     0.7947     6.0071 N.ar    
  23 C23           -3.7385    -0.3204     6.5239 C.ar    
  24 C24           -3.5011    -1.4470     5.7411 C.ar    
  25 C25           -3.7518    -1.4089     4.3978 C.ar    
  26 H26           -1.1159    -1.9717     0.2315 H       
  27 H27           -3.0400     1.8351     0.1769 H       
  28 H28           -0.8556     2.9556     0.3515 H       
  29 H29           -4.4919    -2.0821     1.9304 H       
  30 H30            2.2350     3.1162     1.5866 H       
  31 H31            3.1578     2.8036     0.0969 H       
  32 H32            1.5180     3.4892     0.0007 H       
  33 H33           -5.2085     1.1934     0.9188 H       
  34 H34           -5.5746     3.1116     2.4088 H       
  35 H35           -5.1126     2.9531     4.7907 H       
  36 H36           -3.5405    -0.3659     7.5846 H       
  37 H37           -3.1240    -2.3514     6.1953 H       
  38 H38           -3.5736    -2.2733     3.7754 H       
@<TRIPOS>BOND
   1    1    2 ar
   2    1   10 1
   3    1    6 ar
   4    2    3 ar
   5    2   12 1
   6    3    4 ar
   7    3   26 1
   8    4    5 ar
   9    4    7 1
  10    5    6 ar
  11    5   27 1
  12    6   28 1
  13    7    8 am
  14    7   13 2
  15    7   14 2
  16    8    9 1
  17    8   29 1
  18    9   17 ar
  19    9   18 ar
  20   10   11 am
  21   10   15 1
  22   11   12 1
  23   11   16 2
  24   15   30 1
  25   15   31 1
  26   15   32 1
  27   17   21 ar
  28   17   25 ar
  29   18   19 ar
  30   18   33 1
  31   19   20 ar
  32   19   34 1
  33   20   21 ar
  34   20   35 1
  35   21   22 ar
  36   22   23 ar
  37   23   24 ar
  38   23   36 1
  39   24   25 ar
  40   24   37 1
  41   25   38 1

#	End of record

