#	Name: ASD02198812
#	Creating user name:	WinNT
#	Creation time:	15. 06. 2019 20:20

#	Modifying user name:	WinNT
#	Modification time:	15. 06. 2019 20:20

#	Program:	/corina/corina34_cracker 3.40 0067  02.08.2006

@<TRIPOS>MOLECULE
ASD02198812
  55   59    0    0    0
SMALL
NO_CHARGES


@<TRIPOS>ATOM
   1 C1            -0.0435     1.5031    -0.1144 C.2     
   2 C2            -0.0736     0.1634     0.0982 C.2     
   3 N3             1.0705    -0.5384     0.2609 N.pl3   
   4 N4             2.2351    -0.0040     0.2268 N.2     
   5 C5             2.4069     1.2855     0.0280 C.2     
   6 C6             1.2214     2.1368    -0.1601 C.2     
   7 C7             0.9786    -1.9173     0.4780 C.ar    
   8 C8             1.5802    -2.4890     1.5985 C.ar    
   9 C9             1.4869    -3.8543     1.8106 C.ar    
  10 C10            0.7952    -4.6502     0.9081 C.ar    
  11 C11            0.1969    -4.0785    -0.2081 C.ar    
  12 C12            0.2832    -2.7175    -0.4192 C.ar    
  13 C13            3.7640     1.8674    -0.0048 C.2     
  14 N14            4.3061     2.6069    -1.0182 N.pl3   
  15 N15            5.6082     2.9580    -0.6407 N.2     
  16 C16            5.8520     2.4587     0.5447 C.2     
  17 C17            4.7197     1.7721     0.9829 C.2     
  18 C18            3.6732     2.9513    -2.2193 C.ar    
  19 C19            2.9107     2.0105    -2.8985 C.ar    
  20 C20            2.2874     2.3533    -4.0826 C.ar    
  21 C21            2.4221     3.6318    -4.5915 C.ar    
  22 C22            3.1813     4.5711    -3.9176 C.ar    
  23 C23            3.8023     4.2362    -2.7305 C.ar    
  24 O24            1.3246     3.3399    -0.3484 O.2     
  25 N25            0.7006    -6.0321     1.1225 N.pl3   
  26 N26            1.2520    -6.7390     2.1989 N.2     
  27 C27            0.9524    -8.0048     2.0536 C.2     
  28 C28            0.2014    -8.1454     0.8815 C.2     
  29 C29            0.0560    -6.9181     0.3301 C.2     
  30 C30            3.3259     5.9632    -4.4761 C.3     
  31 F31            2.6079     6.0626    -5.6727 F       
  32 F32            2.8266     6.8897    -3.5544 F       
  33 F33            4.6775     6.2299    -4.7198 F       
  34 O34            2.2573    -1.7078     2.4806 O.3     
  35 C35            2.8481    -2.3616     3.6056 C.3     
  36 C36            7.1410     2.6061     1.3115 C.3     
  37 H37           -0.9548     2.0669    -0.2489 H       
  38 H38           -1.0236    -0.3489     0.1383 H       
  39 H39            1.9523    -4.2995     2.6775 H       
  40 H40           -0.3405    -4.6998    -0.9092 H       
  41 H41           -0.1831    -2.2754    -1.2873 H       
  42 H42            4.6136     1.2532     1.9242 H       
  43 H43            2.8053     1.0116    -2.5017 H       
  44 H44            1.6944     1.6218    -4.6115 H       
  45 H45            1.9338     3.8974    -5.5175 H       
  46 H46            4.3947     4.9702    -2.2045 H       
  47 H47            1.2360    -8.8033     2.7232 H       
  48 H48           -0.1953    -9.0697     0.4882 H       
  49 H49           -0.4741    -6.6885    -0.5824 H       
  50 H50            3.3565    -1.6252     4.2281 H       
  51 H51            2.0706    -2.8554     4.1885 H       
  52 H52            3.5679    -3.1028     3.2583 H       
  53 H53            7.0942     3.5009     1.9322 H       
  54 H54            7.2888     1.7317     1.9451 H       
  55 H55            7.9722     2.6924     0.6116 H       
@<TRIPOS>BOND
   1    1    2 2
   2    1    6 1
   3    1   37 1
   4    2    3 1
   5    2   38 1
   6    3    4 1
   7    3    7 1
   8    4    5 2
   9    5    6 1
  10    5   13 1
  11    6   24 2
  12    7    8 ar
  13    7   12 ar
  14    8    9 ar
  15    8   34 1
  16    9   10 ar
  17    9   39 1
  18   10   11 ar
  19   10   25 1
  20   11   12 ar
  21   11   40 1
  22   12   41 1
  23   13   14 1
  24   13   17 2
  25   14   15 1
  26   14   18 1
  27   15   16 2
  28   16   17 1
  29   16   36 1
  30   17   42 1
  31   18   19 ar
  32   18   23 ar
  33   19   20 ar
  34   19   43 1
  35   20   21 ar
  36   20   44 1
  37   21   22 ar
  38   21   45 1
  39   22   23 ar
  40   22   30 1
  41   23   46 1
  42   25   26 1
  43   25   29 1
  44   26   27 2
  45   27   28 1
  46   27   47 1
  47   28   29 2
  48   28   48 1
  49   29   49 1
  50   30   31 1
  51   30   32 1
  52   30   33 1
  53   34   35 1
  54   35   50 1
  55   35   51 1
  56   35   52 1
  57   36   53 1
  58   36   54 1
  59   36   55 1

#	End of record

