#	Name: ASD01900112
#	Creating user name:	WinNT
#	Creation time:	15. 06. 2019 19:51

#	Modifying user name:	WinNT
#	Modification time:	15. 06. 2019 19:51

#	Program:	/corina/corina34_cracker 3.40 0067  02.08.2006

@<TRIPOS>MOLECULE
ASD01900112
  30   32    0    0    0
SMALL
NO_CHARGES


@<TRIPOS>ATOM
   1 O1             4.4612    -2.6615    -2.0369 O.3     
   2 N2             3.1515    -2.8556    -1.5421 N.2     
   3 C3             2.8518    -1.8984    -0.7093 C.2     
   4 C4             4.0194    -1.0037    -0.6320 C.ar    
   5 C5             4.9863    -1.5472    -1.4906 C.ar    
   6 C6             6.2134    -0.9024    -1.6207 C.ar    
   7 C7             6.4265     0.2535    -0.8926 C.ar    
   8 C8             5.4240     0.7338    -0.0622 C.ar    
   9 N9             4.2720     0.1100     0.0463 N.ar    
  10 N10            1.6537    -1.7496    -0.0227 N.pl3   
  11 C11            0.6710    -2.7400    -0.1090 C.ar    
  12 C12            1.0348    -4.0601    -0.3217 C.ar    
  13 C13           -0.6712    -2.4011     0.0245 C.ar    
  14 C14           -1.6479    -3.3759    -0.0593 C.ar    
  15 C15           -1.2987    -4.6929    -0.2756 C.ar    
  16 C16            0.0481    -5.0463    -0.4066 C.ar    
  17 C17            0.4245    -6.4504    -0.6374 C.2     
  18 O18            1.5930    -6.7540    -0.7507 O.2     
  19 C19           -0.6422    -7.5105    -0.7330 C.3     
  20 H20            6.9792    -1.2951    -2.2732 H       
  21 H21            7.3670     0.7788    -0.9694 H       
  22 H22            5.5934     1.6367     0.5056 H       
  23 H23            1.4988    -0.9583     0.5166 H       
  24 H24            2.0768    -4.3258    -0.4219 H       
  25 H25           -0.9516    -1.3721     0.1947 H       
  26 H26           -2.6882    -3.1054     0.0453 H       
  27 H27           -2.0649    -5.4513    -0.3397 H       
  28 H28           -1.6229    -7.0516    -0.6077 H       
  29 H29           -0.5888    -7.9927    -1.7092 H       
  30 H30           -0.4864    -8.2542     0.0485 H       
@<TRIPOS>BOND
   1    1    2 1
   2    1    5 1
   3    2    3 2
   4    3    4 1
   5    3   10 1
   6    4    5 ar
   7    4    9 ar
   8    5    6 ar
   9    6    7 ar
  10    6   20 1
  11    7    8 ar
  12    7   21 1
  13    8    9 ar
  14    8   22 1
  15   10   11 1
  16   10   23 1
  17   11   12 ar
  18   11   13 ar
  19   12   16 ar
  20   12   24 1
  21   13   14 ar
  22   13   25 1
  23   14   15 ar
  24   14   26 1
  25   15   16 ar
  26   15   27 1
  27   16   17 1
  28   17   18 2
  29   17   19 1
  30   19   28 1
  31   19   29 1
  32   19   30 1

#	End of record

