#	Name: ASD09890044
#	Creating user name:	WinNT
#	Creation time:	15. 06. 2019 21:24

#	Modifying user name:	WinNT
#	Modification time:	15. 06. 2019 21:24

#	Program:	/corina/corina34_cracker 3.40 0067  02.08.2006

@<TRIPOS>MOLECULE
ASD09890044
  45   48    0    0    0
SMALL
NO_CHARGES


@<TRIPOS>ATOM
   1 C1             0.1155     1.1452    -0.0014 C.ar    
   2 C2             0.1893    -0.2353    -0.0247 C.ar    
   3 C3             1.4205    -0.8637    -0.0522 C.ar    
   4 C4             2.5804    -0.1134    -0.0569 C.ar    
   5 C5             2.5091     1.2719    -0.0340 C.ar    
   6 C6             1.2724     1.9001    -0.0060 C.ar    
   7 O7             3.6487     2.0123    -0.0382 O.3     
   8 C8             3.4992     3.4333    -0.0137 C.3     
   9 C9             4.8596     4.0817    -0.0223 C.2     
  10 N10            5.5777     4.4487    -1.1305 N.pl3   
  11 C11            6.7397     4.9923    -0.6531 C.2     
  12 N12            6.6800     4.9348     0.6571 N.2     
  13 N13            5.5689     4.4026     1.0223 N.2     
  14 S14            8.0641     5.6452    -1.6145 S.3     
  15 C15            9.1913     6.1534    -0.2926 C.3     
  16 C16           10.5148     6.6582    -0.8936 C.3     
  17 C17           10.6670     8.1284    -0.4516 C.3     
  18 C18            9.8026     8.2314     0.8295 C.3     
  19 C19            8.5854     7.3344     0.4935 C.3     
  20 C20            5.2019     4.2991    -2.4690 C.ar    
  21 C21            5.3344     5.3697    -3.3447 C.ar    
  22 C22            4.9588     5.2083    -4.6670 C.ar    
  23 C23            4.4615     3.9761    -5.0683 C.ar    
  24 C24            4.3572     2.9558    -4.1435 C.ar    
  25 N25            4.7285     3.1380    -2.8908 N.ar    
  26 H26           -0.8475     1.6339     0.0158 H       
  27 H27           -0.7164    -0.8236    -0.0211 H       
  28 H28            1.4755    -1.9422    -0.0696 H       
  29 H29            3.5419    -0.6047    -0.0780 H       
  30 H30            1.2143     2.9784     0.0115 H       
  31 H31            2.9379     3.7548    -0.8910 H       
  32 H32            2.9626     3.7267     0.8886 H       
  33 H33            9.3814     5.3156     0.3783 H       
  34 H34           11.3473     6.0660    -0.5136 H       
  35 H35           10.4783     6.5972    -1.9812 H       
  36 H36           11.7097     8.3533    -0.2274 H       
  37 H37           10.2882     8.7996    -1.2224 H       
  38 H38           10.3429     7.8420     1.6924 H       
  39 H39            9.4881     9.2607     1.0016 H       
  40 H40            7.8704     7.8773    -0.1246 H       
  41 H41            8.1090     6.9798     1.4075 H       
  42 H42            5.7250     6.3151    -2.9982 H       
  43 H43            5.0501     6.0227    -5.3704 H       
  44 H44            4.1590     3.8171    -6.0928 H       
  45 H45            3.9709     1.9952    -4.4507 H       
@<TRIPOS>BOND
   1    1    2 ar
   2    1    6 ar
   3    1   26 1
   4    2    3 ar
   5    2   27 1
   6    3    4 ar
   7    3   28 1
   8    4    5 ar
   9    4   29 1
  10    5    6 ar
  11    5    7 1
  12    6   30 1
  13    7    8 1
  14    8    9 1
  15    8   31 1
  16    8   32 1
  17    9   10 1
  18    9   13 2
  19   10   11 1
  20   10   20 1
  21   11   12 2
  22   11   14 1
  23   12   13 1
  24   14   15 1
  25   15   16 1
  26   15   19 1
  27   15   33 1
  28   16   17 1
  29   16   34 1
  30   16   35 1
  31   17   18 1
  32   17   36 1
  33   17   37 1
  34   18   19 1
  35   18   38 1
  36   18   39 1
  37   19   40 1
  38   19   41 1
  39   20   21 ar
  40   20   25 ar
  41   21   22 ar
  42   21   42 1
  43   22   23 ar
  44   22   43 1
  45   23   24 ar
  46   23   44 1
  47   24   25 ar
  48   24   45 1

#	End of record

