#	Name: ASD01912260
#	Creating user name:	WinNT
#	Creation time:	15. 06. 2019 19:59

#	Modifying user name:	WinNT
#	Modification time:	15. 06. 2019 19:59

#	Program:	/corina/corina34_cracker 3.40 0067  02.08.2006

@<TRIPOS>MOLECULE
ASD01912260
  42   44    0    0    0
SMALL
NO_CHARGES


@<TRIPOS>ATOM
   1 C1            -0.3201     0.5434    -1.6323 C.1     
   2 C2            -0.1768     1.6987    -0.7985 C.ar    
   3 C3             1.0191     2.4257    -0.7874 C.ar    
   4 C4             1.1069     3.5344     0.0359 C.ar    
   5 C5             0.0222     3.8905     0.8172 C.ar    
   6 N6            -1.0964     3.1923     0.7926 N.ar    
   7 C7            -1.2366     2.1269     0.0194 C.ar    
   8 N8            -0.4338    -0.3731    -2.2938 N.1     
   9 N9            -2.4310     1.4278     0.0207 N.3     
  10 C10           -3.5744     2.3397     0.1506 C.3     
  11 C11           -4.8741     1.5649    -0.0952 C.3     
  12 C12           -4.8958     0.3688     0.8333 C.2     
  13 C13           -3.6608    -0.5060     0.8863 C.3     
  14 C14           -2.4382     0.4004     1.0697 C.3     
  15 C15           -5.9655     0.0955     1.5790 C.2     
  16 C16           -5.9602    -1.0419     2.4490 C.1     
  17 C17           -5.9559    -1.9744     3.1622 C.1     
  18 C18           -5.9506    -3.1119     4.0321 C.ar    
  19 C19           -7.0756    -3.3941     4.8124 C.ar    
  20 C20           -7.0541    -4.4963     5.6471 C.ar    
  21 C21           -5.9103    -5.2833     5.6778 C.ar    
  22 C22           -4.8321    -4.9472     4.8796 C.ar    
  23 N23           -4.8775    -3.8954     4.0881 N.ar    
  24 C24           -3.5900    -5.7999     4.9114 C.3     
  25 H25            1.8531     2.1285    -1.4060 H       
  26 H26            2.0155     4.1173     0.0686 H       
  27 H27            0.0929     4.7559     1.4593 H       
  28 H28           -3.5885     2.7643     1.1544 H       
  29 H29           -3.4850     3.1415    -0.5824 H       
  30 H30           -5.7299     2.2072     0.1127 H       
  31 H31           -4.9104     1.2270    -1.1309 H       
  32 H32           -3.7355    -1.1969     1.7260 H       
  33 H33           -3.5669    -1.0661    -0.0441 H       
  34 H34           -1.5291    -0.1969     0.9998 H       
  35 H35           -2.4843     0.8796     2.0476 H       
  36 H36           -6.8367     0.7318     1.5274 H       
  37 H37           -7.9488    -2.7604     4.7643 H       
  38 H38           -7.9079    -4.7395     6.2621 H       
  39 H39           -5.8631    -6.1505     6.3199 H       
  40 H40           -3.6702    -6.5868     4.1614 H       
  41 H41           -2.7188    -5.1810     4.6969 H       
  42 H42           -3.4826    -6.2488     5.8989 H       
@<TRIPOS>BOND
   1    1    2 1
   2    1    8 3
   3    2    3 ar
   4    2    7 ar
   5    3    4 ar
   6    3   25 1
   7    4    5 ar
   8    4   26 1
   9    5    6 ar
  10    5   27 1
  11    6    7 ar
  12    7    9 1
  13    9   10 1
  14    9   14 1
  15   10   11 1
  16   10   28 1
  17   10   29 1
  18   11   12 1
  19   11   30 1
  20   11   31 1
  21   12   13 1
  22   12   15 2
  23   13   14 1
  24   13   32 1
  25   13   33 1
  26   14   34 1
  27   14   35 1
  28   15   16 1
  29   15   36 1
  30   16   17 3
  31   17   18 1
  32   18   19 ar
  33   18   23 ar
  34   19   20 ar
  35   19   37 1
  36   20   21 ar
  37   20   38 1
  38   21   22 ar
  39   21   39 1
  40   22   23 ar
  41   22   24 1
  42   24   40 1
  43   24   41 1
  44   24   42 1

#	End of record

