#	Name: ASD05790119
#	Creating user name:	WinNT
#	Creation time:	15. 06. 2019 21:03

#	Modifying user name:	WinNT
#	Modification time:	15. 06. 2019 21:03

#	Program:	/corina/corina34_cracker 3.40 0067  02.08.2006

@<TRIPOS>MOLECULE
ASD05790119
  80   85    0    0    0
SMALL
NO_CHARGES


@<TRIPOS>ATOM
   1 C1             1.2523     0.9401     0.0417 C.3     
   2 C2             1.4051    -0.5770    -0.0893 C.3     
   3 C3             1.9455    -0.9132    -1.4796 C.3     
   4 C4             3.3148    -0.2577    -1.6748 C.3     
   5 C5             3.1744     1.2653    -1.5250 C.3     
   6 C6             2.6186     1.6022    -0.1441 C.3     
   7 C7             3.8517    -0.6246    -3.0581 C.3     
   8 C8             2.9749    -0.0292    -4.1726 C.3     
   9 C9             2.9524     1.4742    -3.9748 C.3     
  10 C10            2.2389     1.7400    -2.6161 C.3     
  11 C11            2.0614     2.2736    -4.9231 C.3     
  12 C12            1.8412     3.5760    -4.1469 C.2     
  13 C13            1.9430     3.2367    -2.6700 C.3     
  14 N14            0.1007    -1.2176     0.0963 N.am    
  15 C15            2.8029     2.6596    -6.2052 C.3     
  16 C16            1.9381     3.6624    -6.9696 C.3     
  17 C17            1.7143     4.9429    -6.1827 C.3     
  18 C18            1.6708     4.7359    -4.6992 C.2     
  19 O19            2.7739     5.8829    -6.4972 O.3     
  20 C20            2.2893     6.6368    -7.6034 C.3     
  21 C21            0.8267     6.9539    -7.1826 C.3     
  22 C22            0.3818     5.5924    -6.6405 C.3     
  23 C23            2.9647     7.9639    -7.8911 C.3     
  24 C24            2.2123     8.6043    -9.0708 C.3     
  25 C25            0.7203     8.7247    -8.7738 C.3     
  26 N26            0.1368     7.4292    -8.3730 N.3     
  27 S27           -0.3369    -1.7881     1.5881 S.o2    
  28 C28           -0.4504    -0.3039     2.6248 C.3     
  29 O29           -1.6246    -2.3530     1.3833 O.2     
  30 O30            0.7614    -2.5948     1.9908 O.2     
  31 C31            4.5441     1.9244    -1.6993 C.3     
  32 C32            1.4177     5.9272    -3.8117 C.3     
  33 C33            2.7853     9.9984    -9.3335 C.3     
  34 C34           -0.2743     4.7597    -7.7436 C.3     
  35 H35            0.5646     1.3040    -0.7217 H       
  36 H36            0.8616     1.1827     1.0300 H       
  37 H37            2.0999    -0.9394     0.6684 H       
  38 H38            2.0436    -1.9942    -1.5787 H       
  39 H39            1.2547    -0.5418    -2.2365 H       
  40 H40            4.0048    -0.6323    -0.9187 H       
  41 H41            2.5132     2.6830    -0.0499 H       
  42 H42            3.3044     1.2384     0.6210 H       
  43 H43            4.8672    -0.2421    -3.1599 H       
  44 H44            3.8683    -1.7099    -3.1583 H       
  45 H45            3.4006    -0.2686    -5.1471 H       
  46 H46            1.9629    -0.4278    -4.1011 H       
  47 H47            3.9675     1.8711    -3.9589 H       
  48 H48            1.3059     1.1781    -2.5727 H       
  49 H49            1.1236     1.7579    -5.1298 H       
  50 H50            1.0005     3.4533    -2.1672 H       
  51 H51            2.7552     3.7987    -2.2089 H       
  52 H52           -0.5066    -1.3076    -0.6547 H       
  53 H53            3.7604     3.1158    -5.9536 H       
  54 H54            2.9664     1.7726    -6.8172 H       
  55 H55            2.4287     3.9071    -7.9116 H       
  56 H56            0.9720     3.2054    -7.1839 H       
  57 H57            2.2896     6.0178    -8.5006 H       
  58 H58            0.8089     7.7039    -6.3918 H       
  59 H59           -0.2959     5.7170    -5.7959 H       
  60 H60            2.9030     8.6102    -7.0156 H       
  61 H61            4.0080     7.7995    -8.1606 H       
  62 H62            2.3511     7.9888    -9.9595 H       
  63 H63            0.5752     9.4443    -7.9681 H       
  64 H64            0.2082     9.0843    -9.6663 H       
  65 H65            0.2022     6.7560    -9.1218 H       
  66 H66           -1.1996     0.3715     2.2116 H       
  67 H67           -0.7370    -0.5888     3.6371 H       
  68 H68            0.5171     0.1976     2.6486 H       
  69 H69            4.9907     1.5921    -2.6365 H       
  70 H70            4.4264     3.0079    -1.7170 H       
  71 H71            5.1912     1.6429    -0.8686 H       
  72 H72            0.3454     6.0399    -3.6517 H       
  73 H73            1.9144     5.7781    -2.8529 H       
  74 H74            1.8103     6.8254    -4.2884 H       
  75 H75            3.8448     9.9159    -9.5762 H       
  76 H76            2.2560    10.4573   -10.1686 H       
  77 H77            2.6634    10.6151    -8.4431 H       
  78 H78            0.4594     4.5420    -8.5197 H       
  79 H79           -0.6450     3.8254    -7.3218 H       
  80 H80           -1.1049     5.3182    -8.1752 H       
@<TRIPOS>BOND
   1    1    2 1
   2    1    6 1
   3    1   35 1
   4    1   36 1
   5    2    3 1
   6    2   14 1
   7    2   37 1
   8    3    4 1
   9    3   38 1
  10    3   39 1
  11    4    5 1
  12    4    7 1
  13    4   40 1
  14    5    6 1
  15    5   31 1
  16    5   10 1
  17    6   41 1
  18    6   42 1
  19    7    8 1
  20    7   43 1
  21    7   44 1
  22    8    9 1
  23    8   45 1
  24    8   46 1
  25    9   10 1
  26    9   11 1
  27    9   47 1
  28   10   13 1
  29   10   48 1
  30   11   12 1
  31   11   15 1
  32   11   49 1
  33   12   13 1
  34   12   18 2
  35   13   50 1
  36   13   51 1
  37   14   27 am
  38   14   52 1
  39   15   16 1
  40   15   53 1
  41   15   54 1
  42   16   17 1
  43   16   55 1
  44   16   56 1
  45   17   18 1
  46   17   19 1
  47   17   22 1
  48   18   32 1
  49   19   20 1
  50   20   21 1
  51   20   23 1
  52   20   57 1
  53   21   22 1
  54   21   26 1
  55   21   58 1
  56   22   34 1
  57   22   59 1
  58   23   24 1
  59   23   60 1
  60   23   61 1
  61   24   25 1
  62   24   33 1
  63   24   62 1
  64   25   26 1
  65   25   63 1
  66   25   64 1
  67   26   65 1
  68   27   28 1
  69   27   29 2
  70   27   30 2
  71   28   66 1
  72   28   67 1
  73   28   68 1
  74   31   69 1
  75   31   70 1
  76   31   71 1
  77   32   72 1
  78   32   73 1
  79   32   74 1
  80   33   75 1
  81   33   76 1
  82   33   77 1
  83   34   78 1
  84   34   79 1
  85   34   80 1

#	End of record

