#	Name: ASD01810773
#	Creating user name:	WinNT
#	Creation time:	15. 06. 2019 19:25

#	Modifying user name:	WinNT
#	Modification time:	15. 06. 2019 19:25

#	Program:	/corina/corina34_cracker 3.40 0067  02.08.2006

@<TRIPOS>MOLECULE
ASD01810773
  38   41    0    0    0
SMALL
NO_CHARGES


@<TRIPOS>ATOM
   1 C1            -0.0167     1.3799     0.0096 C.ar    
   2 C2             0.0021    -0.0041     0.0020 C.ar    
   3 C3             1.2168    -0.6661    -0.0131 C.ar    
   4 N4             2.3564     0.0003    -0.0204 N.ar    
   5 C5             2.3890     1.3143    -0.0137 C.ar    
   6 C6             1.5554     3.4896     0.0064 C.2     
   7 C7             1.2070     2.0575     0.0016 C.ar    
   8 C8             3.5178     2.3166    -0.0191 C.3     
   9 N9             2.8911     3.6431    -0.0060 N.am    
  10 C10            3.6030     4.9234    -0.0059 C.3     
  11 C11            3.8618     5.3542     1.4148 C.ar    
  12 C12            4.3380     6.1460     4.0263 C.ar    
  13 C13            3.0568     6.2497     3.4885 C.ar    
  14 C14            2.8237     5.8535     2.1850 C.ar    
  15 C15            5.1331     5.2448     1.9473 C.ar    
  16 C16            5.3761     5.6378     3.2482 C.ar    
  17 F17            1.5824     5.9534     1.6611 F       
  18 C18            4.5948     6.5701     5.4248 C.ar    
  19 C19            3.5686     7.0777     6.2258 C.ar    
  20 N20            3.8292     7.4458     7.4642 N.ar    
  21 N21            5.0032     7.3565     7.9735 N.ar    
  22 C22            6.0361     6.8906     7.2966 C.ar    
  23 C23            5.8723     6.4698     5.9885 C.ar    
  24 O24            0.7510     4.4008     0.0193 O.2     
  25 H25           -0.9508     1.9219     0.0170 H       
  26 H26           -0.9227    -0.5618     0.0082 H       
  27 H27            1.2331    -1.7460    -0.0187 H       
  28 H28            4.1379     2.1868     0.8679 H       
  29 H29            4.1209     2.1964    -0.9191 H       
  30 H30            4.5521     4.8115    -0.5302 H       
  31 H31            2.9965     5.6764    -0.5092 H       
  32 H32            2.2486     6.6429     4.0874 H       
  33 H33            5.9377     4.8506     1.3443 H       
  34 H34            6.3708     5.5559     3.6607 H       
  35 H35            2.5670     7.1683     5.8320 H       
  36 H36            5.1369     7.6425     8.8907 H       
  37 H37            7.0076     6.8336     7.7649 H       
  38 H38            6.7039     6.0810     5.4196 H       
@<TRIPOS>BOND
   1    1    2 ar
   2    1    7 ar
   3    1   25 1
   4    2    3 ar
   5    2   26 1
   6    3    4 ar
   7    3   27 1
   8    4    5 ar
   9    5    8 1
  10    5    7 ar
  11    6    7 1
  12    6    9 am
  13    6   24 2
  14    8    9 1
  15    8   28 1
  16    8   29 1
  17    9   10 1
  18   10   11 1
  19   10   30 1
  20   10   31 1
  21   11   15 ar
  22   11   14 ar
  23   12   13 ar
  24   12   16 ar
  25   12   18 1
  26   13   14 ar
  27   13   32 1
  28   14   17 1
  29   15   16 ar
  30   15   33 1
  31   16   34 1
  32   18   19 ar
  33   18   23 ar
  34   19   20 ar
  35   19   35 1
  36   20   21 ar
  37   21   22 ar
  38   21   36 1
  39   22   23 ar
  40   22   37 1
  41   23   38 1

#	End of record

