#	Name: ASD00160001
#	Creating user name:	WinNT
#	Creation time:	15. 06. 2019 18:31

#	Modifying user name:	WinNT
#	Modification time:	15. 06. 2019 18:31

#	Program:	/corina/corina34_cracker 3.40 0067  02.08.2006

@<TRIPOS>MOLECULE
ASD00160001
  19   18    0    0    0
SMALL
NO_CHARGES


@<TRIPOS>ATOM
   1 P1            -0.0198     1.6058     0.0109 P.3     
   2 O2             0.0021    -0.0041     0.0020 O.3     
   3 O3             1.4907     2.1630    -0.0006 O.3     
   4 O4            -0.7984     2.1391    -1.2935 O.3     
   5 O5            -0.7125     2.0831     1.2285 O.2     
   6 C6             0.5294    -0.7812     1.0790 C.3     
   7 C7             0.3953    -2.2689     0.7479 C.3     
   8 C8             1.0710    -3.0979     1.8421 C.3     
   9 O9            -0.9886    -2.6172     0.6726 O.3     
  10 O10            1.0481    -4.4790     1.4759 O.3     
  11 H11            2.0052     1.8889    -0.7720 H       
  12 H12           -0.8503     3.1028    -1.3539 H       
  13 H13            1.5812    -0.5347     1.2240 H       
  14 H14           -0.0246    -0.5607     1.9915 H       
  15 H15            0.8738    -2.4725    -0.2100 H       
  16 H16            2.1039    -2.7704     1.9604 H       
  17 H17            0.5369    -2.9625     2.7826 H       
  18 H18           -1.4784    -2.4619     1.4918 H       
  19 H19            1.4607    -5.0649     2.1252 H       
@<TRIPOS>BOND
   1    1    2 1
   2    1    3 1
   3    1    4 1
   4    1    5 2
   5    2    6 1
   6    3   11 1
   7    4   12 1
   8    6    7 1
   9    6   13 1
  10    6   14 1
  11    7    8 1
  12    7    9 1
  13    7   15 1
  14    8   10 1
  15    8   16 1
  16    8   17 1
  17    9   18 1
  18   10   19 1

#	End of record

