#	Name: ASD03331636
#	Creating user name:	WinNT
#	Creation time:	15. 06. 2019 20:39

#	Modifying user name:	WinNT
#	Modification time:	15. 06. 2019 20:39

#	Program:	/corina/corina34_cracker 3.40 0067  02.08.2006

@<TRIPOS>MOLECULE
ASD03331636
  67   71    0    0    0
SMALL
NO_CHARGES


@<TRIPOS>ATOM
   1 C1             0.1030     1.1590     0.0152 C.ar    
   2 C2             0.2450    -0.1988    -0.0039 C.ar    
   3 C3             1.5087    -0.7777    -0.0329 C.ar    
   4 C4             2.6398     0.0069    -0.0433 C.ar    
   5 C5             1.2394     1.9785     0.0051 C.ar    
   6 C6             1.4261     3.3820     0.0185 C.2     
   7 C7             2.5205     1.3939    -0.0246 C.ar    
   8 N8             3.4392     2.4173    -0.0285 N.pl3   
   9 C9             2.7633     3.6218    -0.0024 C.2     
  10 C10            0.3369     4.4230     0.0499 C.3     
  11 Cl11          -1.1651    -1.2114     0.0086 Cl      
  12 C12            3.3910     4.9517     0.0018 C.2     
  13 N13            4.7312     5.0640     0.0902 N.am    
  14 O14            2.7007     5.9504    -0.0745 O.2     
  15 C15            5.3565     6.3888     0.0945 C.3     
  16 C16            6.8750     6.2357     0.2028 C.3     
  17 C17            7.5183     7.5985     0.2071 C.ar    
  18 C18            8.4791     9.4387    -0.9861 C.ar    
  19 C19            7.8894     8.1900    -0.9865 C.ar    
  20 C20            7.7310     8.2571     1.4043 C.ar    
  21 C21            8.3199     9.5063     1.4119 C.ar    
  22 C22            8.6990    10.1009     0.2151 C.ar    
  23 N23            9.2952    11.3640     0.2191 N.3     
  24 C24            8.5468    12.3019    -0.6273 C.3     
  25 C25            9.4318    11.8771     1.5882 C.3     
  26 C26           10.2166    13.1907     1.5662 C.3     
  27 C27            9.4769    14.2069     0.6917 C.3     
  28 C28            9.3052    13.6282    -0.7155 C.3     
  29 C29           -2.5013     5.1468    -0.0120 C.3     
  30 C30           -1.5851     5.4032    -1.2101 C.3     
  31 C31           -0.4793     4.3463    -1.2420 C.3     
  32 C32           -0.5794     4.1666     1.2480 C.3     
  33 C33           -1.6852     5.2235     1.2799 C.3     
  34 H34           -0.8826     1.6002     0.0335 H       
  35 H35            1.6040    -1.8534    -0.0470 H       
  36 H36            3.6171    -0.4522    -0.0654 H       
  37 H37            4.4031     2.3109    -0.0466 H       
  38 H38            0.7834     5.4134     0.1393 H       
  39 H39            5.2817     4.2676     0.1511 H       
  40 H40            5.1090     6.9104    -0.8301 H       
  41 H41            4.9876     6.9620     0.9450 H       
  42 H42            7.1225     5.7141     1.1273 H       
  43 H43            7.2440     5.6624    -0.6477 H       
  44 H44            8.7684     9.9003    -1.9187 H       
  45 H45            7.7181     7.6746    -1.9200 H       
  46 H46            7.4360     7.7942     2.3344 H       
  47 H47            8.4851    10.0204     2.3472 H       
  48 H48            8.4353    11.8802    -1.6262 H       
  49 H49            7.5615    12.4750    -0.1944 H       
  50 H50            8.4424    12.0522     2.0108 H       
  51 H51            9.9631    11.1468     2.1985 H       
  52 H52           10.3043    13.5793     2.5808 H       
  53 H53           11.2110    13.0137     1.1565 H       
  54 H54            8.4973    14.4135     1.1226 H       
  55 H55           10.0543    15.1299     0.6381 H       
  56 H56           10.2853    13.4581    -1.1611 H       
  57 H57            8.7417    14.3294    -1.3311 H       
  58 H58           -3.2891     5.8997     0.0107 H       
  59 H59           -2.9478     4.1564    -0.1014 H       
  60 H60           -2.1665     5.3485    -2.1305 H       
  61 H61           -1.1386     6.3936    -1.1207 H       
  62 H62            0.1735     4.5290    -2.0955 H       
  63 H63           -0.9257     3.3559    -1.3314 H       
  64 H64           -1.0258     3.1762     1.1586 H       
  65 H65            0.0021     4.2212     2.1684 H       
  66 H66           -1.2387     6.2138     1.3693 H       
  67 H67           -2.3379     5.0408     2.1335 H       
@<TRIPOS>BOND
   1    1    2 ar
   2    1    5 ar
   3    1   34 1
   4    2    3 ar
   5    2   11 1
   6    3    4 ar
   7    3   35 1
   8    4    7 ar
   9    4   36 1
  10    5    7 ar
  11    5    6 1
  12    6    9 2
  13    6   10 1
  14    7    8 1
  15    8    9 1
  16    8   37 1
  17    9   12 1
  18   10   32 1
  19   10   31 1
  20   10   38 1
  21   12   13 am
  22   12   14 2
  23   13   15 1
  24   13   39 1
  25   15   16 1
  26   15   40 1
  27   15   41 1
  28   16   17 1
  29   16   42 1
  30   16   43 1
  31   17   20 ar
  32   17   19 ar
  33   18   19 ar
  34   18   22 ar
  35   18   44 1
  36   19   45 1
  37   20   21 ar
  38   20   46 1
  39   21   22 ar
  40   21   47 1
  41   22   23 1
  42   23   25 1
  43   23   24 1
  44   24   28 1
  45   24   48 1
  46   24   49 1
  47   25   26 1
  48   25   50 1
  49   25   51 1
  50   26   27 1
  51   26   52 1
  52   26   53 1
  53   27   28 1
  54   27   54 1
  55   27   55 1
  56   28   56 1
  57   28   57 1
  58   29   30 1
  59   29   33 1
  60   29   58 1
  61   29   59 1
  62   30   31 1
  63   30   60 1
  64   30   61 1
  65   31   62 1
  66   31   63 1
  67   32   33 1
  68   32   64 1
  69   32   65 1
  70   33   66 1
  71   33   67 1

#	End of record

