#	Name: ASD05490003
#	Creating user name:	WinNT
#	Creation time:	15. 06. 2019 21:00

#	Modifying user name:	WinNT
#	Modification time:	15. 06. 2019 21:00

#	Program:	/corina/corina34_cracker 3.40 0067  02.08.2006

@<TRIPOS>MOLECULE
ASD05490003
  45   47    0    0    0
SMALL
NO_CHARGES


@<TRIPOS>ATOM
   1 N1            -0.0178     1.4608     0.0101 N.pl3   
   2 N2             2.7941     4.3825    -0.0021 N.ar    
   3 C3             1.4952     4.6637     0.0118 C.ar    
   4 C4             3.2233     3.1291    -0.0117 C.ar    
   5 N5             2.3949     2.0994    -0.0092 N.ar    
   6 C6             1.0795     2.2895     0.0040 C.ar    
   7 C7             0.5781     3.6006     0.0154 C.ar    
   8 N8             1.0558     5.9772     0.0230 N.pl3   
   9 C9            -1.1306     2.2546     0.0190 C.2     
  10 N10           -0.7773     3.5129     0.0275 N.2     
  11 C11            0.0021    -0.0041     0.0020 C.3     
  12 C12            0.0225    -0.5140     1.4200 C.ar    
  13 C13           -1.1651    -0.7641     2.0815 C.ar    
  14 C14           -1.1468    -1.2323     3.3823 C.ar    
  15 C15            0.0590    -1.4505     4.0214 C.ar    
  16 C16            1.2475    -1.2003     3.3597 C.ar    
  17 C17            1.2290    -0.7370     2.0570 C.ar    
  18 I18            3.0756    -1.5301     4.3284 I       
  19 O19            4.5582     2.8948    -0.0262 O.3     
  20 C20            9.2556     4.3401    -0.0677 C.3     
  21 C21            7.7964     4.7997    -0.0510 C.3     
  22 C22            6.8765     3.5771    -0.0468 C.3     
  23 C23            5.4173     4.0368    -0.0301 C.3     
  24 O24           -2.4073     1.8047     0.0266 O.3     
  25 C25           -3.4422     2.7900     0.0460 C.3     
  26 H26            1.6985     6.7037     0.0207 H       
  27 H27            0.1053     6.1706     0.0331 H       
  28 H28           -0.8878    -0.3767    -0.5053 H       
  29 H29            0.8920    -0.3525    -0.5222 H       
  30 H30           -2.1075    -0.5934     1.5824 H       
  31 H31           -2.0748    -1.4274     3.8991 H       
  32 H32            0.0732    -1.8159     5.0376 H       
  33 H33            2.1568    -0.5419     1.5399 H       
  34 H34            9.4567     3.7371     0.8177 H       
  35 H35            9.4387     3.7446    -0.9621 H       
  36 H36            9.9109     5.2111    -0.0708 H       
  37 H37            7.6132     5.3953     0.8433 H       
  38 H38            7.5952     5.4027    -0.9365 H       
  39 H39            7.0597     2.9816    -0.9412 H       
  40 H40            7.0777     2.9742     0.8387 H       
  41 H41            5.2162     4.6397    -0.9156 H       
  42 H42            5.2342     4.6323     0.8643 H       
  43 H43           -3.3594     3.4214    -0.8387 H       
  44 H44           -4.4139     2.2962     0.0503 H       
  45 H45           -3.3426     3.4039     0.9411 H       
@<TRIPOS>BOND
   1    1   11 1
   2    1    6 1
   3    1    9 1
   4    2    3 ar
   5    2    4 ar
   6    3    8 1
   7    3    7 ar
   8    4    5 ar
   9    4   19 1
  10    5    6 ar
  11    6    7 ar
  12    7   10 1
  13    8   26 1
  14    8   27 1
  15    9   10 2
  16    9   24 1
  17   11   12 1
  18   11   28 1
  19   11   29 1
  20   12   13 ar
  21   12   17 ar
  22   13   14 ar
  23   13   30 1
  24   14   15 ar
  25   14   31 1
  26   15   16 ar
  27   15   32 1
  28   16   17 ar
  29   16   18 1
  30   17   33 1
  31   19   23 1
  32   20   21 1
  33   20   34 1
  34   20   35 1
  35   20   36 1
  36   21   22 1
  37   21   37 1
  38   21   38 1
  39   22   23 1
  40   22   39 1
  41   22   40 1
  42   23   41 1
  43   23   42 1
  44   24   25 1
  45   25   43 1
  46   25   44 1
  47   25   45 1

#	End of record

