#	Name: ASD02039157
#	Creating user name:	WinNT
#	Creation time:	15. 06. 2019 20:17

#	Modifying user name:	WinNT
#	Modification time:	15. 06. 2019 20:17

#	Program:	/corina/corina34_cracker 3.40 0067  02.08.2006

@<TRIPOS>MOLECULE
ASD02039157
  39   42    0    0    0
SMALL
NO_CHARGES


@<TRIPOS>ATOM
   1 N1            -0.0440     1.3718    -0.1168 N.2     
   2 C2            -0.0054     0.0667    -0.0724 C.2     
   3 N3             1.2920    -0.2980    -0.1554 N.2     
   4 C4             1.9674     0.8213    -0.2460 C.2     
   5 O5             1.0790     1.8194    -0.2163 O.3     
   6 C6             3.4638     0.9575    -0.3614 C.3     
   7 O7             3.7782     1.9141    -1.3754 O.3     
   8 C8             4.9929     1.8005    -1.9759 C.ar    
   9 N9            -1.0959    -0.7868     0.0400 N.pl3   
  10 C10           -2.3837    -0.2608     0.1837 C.ar    
  11 C11           -2.7015     0.9662    -0.3850 C.ar    
  12 C12           -3.9737     1.4839    -0.2419 C.ar    
  13 C13           -4.9322     0.7821     0.4678 C.ar    
  14 C14           -4.6187    -0.4413     1.0359 C.ar    
  15 C15           -3.3484    -0.9666     0.8902 C.ar    
  16 C16            5.3175     2.6325    -3.0458 C.ar    
  17 C17            6.5316     2.5351    -3.6631 C.ar    
  18 C18            7.4628     1.5967    -3.2266 C.ar    
  19 C19            7.1448     0.7514    -2.1464 C.ar    
  20 C20            5.8989     0.8664    -1.5193 C.ar    
  21 N21            8.7321     1.2632    -3.6277 N.pl3   
  22 N22            9.2094     0.2272    -2.8183 N.2     
  23 C23            8.3093    -0.1027    -1.9365 C.2     
  24 Cl24          -6.5301     1.4366     0.6466 Cl      
  25 Cl25          -5.8237    -1.3189     1.9255 Cl      
  26 C26            4.0381     1.4257     0.9772 C.3     
  27 H27            3.8972    -0.0073    -0.6252 H       
  28 H28           -0.9640    -1.7476     0.0188 H       
  29 H29           -1.9539     1.5151    -0.9384 H       
  30 H30           -4.2207     2.4378    -0.6840 H       
  31 H31           -3.1038    -1.9207     1.3333 H       
  32 H32            4.6003     3.3625    -3.3909 H       
  33 H33            6.7696     3.1864    -4.4911 H       
  34 H34            5.6456     0.2226    -0.6900 H       
  35 H35            9.2199     1.6792    -4.3556 H       
  36 H36            8.4076    -0.8709    -1.1838 H       
  37 H37            3.7982     0.6960     1.7506 H       
  38 H38            5.1204     1.5242     0.8937 H       
  39 H39            3.6047     2.3904     1.2409 H       
@<TRIPOS>BOND
   1    1    2 2
   2    1    5 1
   3    2    3 1
   4    2    9 1
   5    3    4 2
   6    4    5 1
   7    4    6 1
   8    6    7 1
   9    6   26 1
  10    6   27 1
  11    7    8 1
  12    8   16 ar
  13    8   20 ar
  14    9   10 1
  15    9   28 1
  16   10   11 ar
  17   10   15 ar
  18   11   12 ar
  19   11   29 1
  20   12   13 ar
  21   12   30 1
  22   13   14 ar
  23   13   24 1
  24   14   15 ar
  25   14   25 1
  26   15   31 1
  27   16   17 ar
  28   16   32 1
  29   17   18 ar
  30   17   33 1
  31   18   19 ar
  32   18   21 1
  33   19   20 ar
  34   19   23 1
  35   20   34 1
  36   21   22 1
  37   21   35 1
  38   22   23 2
  39   23   36 1
  40   26   37 1
  41   26   38 1
  42   26   39 1

#	End of record

