#	Name: ASD01900512
#	Creating user name:	WinNT
#	Creation time:	15. 06. 2019 19:52

#	Modifying user name:	WinNT
#	Modification time:	15. 06. 2019 19:52

#	Program:	/corina/corina34_cracker 3.40 0067  02.08.2006

@<TRIPOS>MOLECULE
ASD01900512
  28   30    0    0    0
SMALL
NO_CHARGES


@<TRIPOS>ATOM
   1 C1            -0.0153     1.5200    -0.5802 C.ar    
   2 C2             0.0523     0.4081    -1.4325 C.ar    
   3 C3             1.2635    -0.2645    -1.5709 C.ar    
   4 C4             2.3542     0.1966    -0.8571 C.ar    
   5 C5             2.2139     1.3034    -0.0322 C.ar    
   6 N6             1.0613     1.9247     0.0842 N.ar    
   7 O7            -1.1728     0.2319    -1.9651 O.3     
   8 N8            -2.0489     1.2234    -1.4676 N.2     
   9 C9            -1.4063     2.0010    -0.6418 C.2     
  10 N10           -1.9329     3.0870     0.0450 N.pl3   
  11 C11           -3.3028     3.3613    -0.0250 C.ar    
  12 C12           -3.7580     4.6676     0.1014 C.ar    
  13 C13           -5.1107     4.9360     0.0320 C.ar    
  14 C14           -6.0135     3.9040    -0.1630 C.ar    
  15 C15           -5.5621     2.6012    -0.2888 C.ar    
  16 C16           -4.2093     2.3288    -0.2267 C.ar    
  17 C17           -5.6052     6.3530     0.1692 C.3     
  18 F18           -4.5161     7.2108     0.3573 F       
  19 F19           -6.2936     6.7211    -0.9918 F       
  20 F20           -6.4648     6.4425     1.2692 F       
  21 F21           -7.3365     4.1688    -0.2301 F       
  22 H22            1.3488    -1.1243    -2.2188 H       
  23 H23            3.3087    -0.3016    -0.9407 H       
  24 H24            3.0676     1.6614     0.5242 H       
  25 H25           -1.3509     3.6554     0.5733 H       
  26 H26           -3.0544     5.4726     0.2543 H       
  27 H27           -6.2678     1.7979    -0.4405 H       
  28 H28           -3.8572     1.3131    -0.3300 H       
@<TRIPOS>BOND
   1    1    2 ar
   2    1    6 ar
   3    1    9 1
   4    2    3 ar
   5    2    7 1
   6    3    4 ar
   7    3   22 1
   8    4    5 ar
   9    4   23 1
  10    5    6 ar
  11    5   24 1
  12    7    8 1
  13    8    9 2
  14    9   10 1
  15   10   11 1
  16   10   25 1
  17   11   12 ar
  18   11   16 ar
  19   12   13 ar
  20   12   26 1
  21   13   14 ar
  22   13   17 1
  23   14   15 ar
  24   14   21 1
  25   15   16 ar
  26   15   27 1
  27   16   28 1
  28   17   18 1
  29   17   19 1
  30   17   20 1

#	End of record

