#	Name: ASD09116089
#	Creating user name:	WinNT
#	Creation time:	15. 06. 2019 21:20

#	Modifying user name:	WinNT
#	Modification time:	15. 06. 2019 21:20

#	Program:	/corina/corina34_cracker 3.40 0067  02.08.2006

@<TRIPOS>MOLECULE
ASD09116089
  67   72    0    0    0
SMALL
NO_CHARGES


@<TRIPOS>ATOM
   1 C1             0.4713     1.4584    -1.0024 C.ar    
   2 N2             0.4311     0.0722    -0.8678 N.pl3   
   3 N3            -0.7153    -0.7281    -0.7353 N.2     
   4 C4            -0.3065    -1.9701    -0.6372 C.2     
   5 N5             1.0300    -1.9987    -0.7001 N.2     
   6 C6             1.4938    -0.7760    -0.8445 C.2     
   7 N7             2.8238    -0.4169    -0.9464 N.pl3   
   8 N8            -1.1328    -3.0838    -0.4899 N.pl3   
   9 C9            -0.5827    -4.3713    -0.5100 C.ar    
  10 C10           -1.1882    -5.3965     0.2056 C.ar    
  11 C11           -0.6452    -6.6672     0.1851 C.ar    
  12 C12            0.5071    -6.9184    -0.5521 C.ar    
  13 C13            1.1108    -5.8934    -1.2663 C.ar    
  14 C14            0.5645    -4.6244    -1.2497 C.ar    
  15 N15            1.6371     2.0783    -1.1191 N.ar    
  16 C16            1.6903     3.3879    -1.2455 C.ar    
  17 N17            0.5936     4.1124    -1.2578 N.ar    
  18 C18           -0.6105     3.5676    -1.1446 C.ar    
  19 C19           -0.7216     2.2037    -1.0092 C.ar    
  20 C20           -1.8071     4.4774    -1.1709 C.3     
  21 C21           -2.3265     4.7362     0.2490 C.3     
  22 C22           -2.6268     3.4391     1.0050 C.3     
  23 C23           -3.7459     2.9489     0.1014 C.3     
  24 C24           -3.3749     2.0513    -1.0653 C.3     
  25 C25           -1.9990     1.4282    -0.8754 C.3     
  26 F26           -1.2332    -7.6647     0.8812 F       
  27 N27            1.0587    -8.2065    -0.5731 N.3     
  28 N28           -0.3363   -10.7964    -2.2062 N.3     
  29 C29            0.2696   -11.2613    -3.4675 C.3     
  30 C30            0.0545   -12.7875    -3.5427 C.3     
  31 C31           -1.1549   -13.0170    -2.5985 C.3     
  32 C32           -0.8918   -11.9655    -1.4919 C.3     
  33 C33            1.1018    -8.7407    -1.9471 C.3     
  34 C34            0.6504   -10.0924    -1.3763 C.3     
  35 C35            0.0358    -9.2245    -0.2692 C.3     
  36 H36            3.5139    -1.0977    -0.9129 H       
  37 H37            3.0677     0.5161    -1.0514 H       
  38 H38           -2.0886    -2.9665    -0.3735 H       
  39 H39           -2.0828    -5.2005     0.7781 H       
  40 H40            2.0056    -6.0885    -1.8387 H       
  41 H41            1.0349    -3.8270    -1.8059 H       
  42 H42            2.6503     3.8721    -1.3407 H       
  43 H43           -1.5002     5.4408    -1.6011 H       
  44 H44           -2.5922     4.0691    -1.7928 H       
  45 H45           -1.5690     5.2934     0.7996 H       
  46 H46           -3.2327     5.3337     0.1912 H       
  47 H47           -1.7707     2.7686     1.0241 H       
  48 H48           -2.9836     3.6446     2.0187 H       
  49 H49           -4.4650     2.4066     0.7275 H       
  50 H50           -4.2751     3.8213    -0.2931 H       
  51 H51           -4.1160     1.2407    -1.1320 H       
  52 H52           -3.4157     2.6014    -2.0032 H       
  53 H53           -1.9376     0.5979    -1.5914 H       
  54 H54           -1.9929     0.9615     0.1153 H       
  55 H55           -0.2170   -10.7760    -4.3136 H       
  56 H56            1.3362   -11.0364    -3.4715 H       
  57 H57           -0.1878   -13.0928    -4.5606 H       
  58 H58            0.9339   -13.3190    -3.1789 H       
  59 H59           -2.0950   -12.8162    -3.1123 H       
  60 H60           -1.1438   -14.0268    -2.1883 H       
  61 H61           -0.1699   -12.3471    -0.7697 H       
  62 H62           -1.8234   -11.6981    -0.9933 H       
  63 H63            0.3698    -8.2844    -2.6135 H       
  64 H64            2.1049    -8.7624    -2.3732 H       
  65 H65            1.4679   -10.7307    -1.0410 H       
  66 H66            0.1353    -9.6564     0.7266 H       
  67 H67           -0.9807    -8.8974    -0.4878 H       
@<TRIPOS>BOND
   1    1    2 1
   2    1   15 ar
   3    1   19 ar
   4    2    3 1
   5    2    6 1
   6    3    4 2
   7    4    5 1
   8    4    8 1
   9    5    6 2
  10    6    7 1
  11    7   36 1
  12    7   37 1
  13    8    9 1
  14    8   38 1
  15    9   10 ar
  16    9   14 ar
  17   10   11 ar
  18   10   39 1
  19   11   12 ar
  20   11   26 1
  21   12   13 ar
  22   12   27 1
  23   13   14 ar
  24   13   40 1
  25   14   41 1
  26   15   16 ar
  27   16   17 ar
  28   16   42 1
  29   17   18 ar
  30   18   19 ar
  31   18   20 1
  32   19   25 1
  33   20   21 1
  34   20   43 1
  35   20   44 1
  36   21   22 1
  37   21   45 1
  38   21   46 1
  39   22   23 1
  40   22   47 1
  41   22   48 1
  42   23   24 1
  43   23   49 1
  44   23   50 1
  45   24   25 1
  46   24   51 1
  47   24   52 1
  48   25   53 1
  49   25   54 1
  50   27   33 1
  51   27   35 1
  52   28   29 1
  53   28   32 1
  54   28   34 1
  55   29   30 1
  56   29   55 1
  57   29   56 1
  58   30   31 1
  59   30   57 1
  60   30   58 1
  61   31   32 1
  62   31   59 1
  63   31   60 1
  64   32   61 1
  65   32   62 1
  66   33   34 1
  67   33   63 1
  68   33   64 1
  69   34   35 1
  70   34   65 1
  71   35   66 1
  72   35   67 1

#	End of record

