#	Name: ASD05380064
#	Creating user name:	WinNT
#	Creation time:	15. 06. 2019 20:59

#	Modifying user name:	WinNT
#	Modification time:	15. 06. 2019 20:59

#	Program:	/corina/corina34_cracker 3.40 0067  02.08.2006

@<TRIPOS>MOLECULE
ASD05380064
  48   52    0    0    0
SMALL
NO_CHARGES


@<TRIPOS>ATOM
   1 C1            -0.2260     1.5761    -0.3888 C.ar    
   2 C2            -0.0886     0.1884    -0.6182 C.ar    
   3 C3             0.7603     2.4577    -0.8296 C.ar    
   4 C4             1.8671     1.9638    -1.4890 C.ar    
   5 C5             2.0035     0.6014    -1.7156 C.ar    
   6 C6             1.0405    -0.2857    -1.2878 C.ar    
   7 N7            -1.0605    -0.6505    -0.1800 N.2     
   8 C8            -2.1105    -0.2090     0.4431 C.2     
   9 N9            -2.3249     1.1086     0.7062 N.am    
  10 C10           -1.4232     2.0428     0.3240 C.2     
  11 C11           -3.4859     1.5011     1.3841 C.ar    
  12 C12           -4.6409     1.7973     0.6717 C.ar    
  13 C13           -3.4860     1.5892     2.7694 C.ar    
  14 C14           -4.6346     1.9773     3.4359 C.ar    
  15 C15           -5.7825     2.2768     2.7213 C.ar    
  16 C16           -5.7848     2.1842     1.3417 C.ar    
  17 C17           -3.1446    -1.2066     0.8977 C.3     
  18 N18           -3.2467    -2.2870    -0.0865 N.pl3   
  19 C19           -4.4168    -3.0176    -0.1929 C.ar    
  20 N20           -5.4564    -2.7515     0.5901 N.ar    
  21 O21           -1.6019     3.2250     0.5531 O.2     
  22 C22           -4.5331    -4.0534    -1.1358 C.ar    
  23 C23           -5.7442    -4.7621    -1.2007 C.ar    
  24 N24           -6.7324    -4.4326    -0.3751 N.ar    
  25 C25           -6.5825    -3.4467     0.4946 C.ar    
  26 N26           -3.7089    -4.5840    -2.0726 N.2     
  27 C27           -4.3226    -5.5492    -2.6925 C.2     
  28 N28           -5.5825    -5.6983    -2.1904 N.pl3   
  29 Cl29           0.5969     4.1634    -0.5512 Cl      
  30 C30           -2.7323    -1.7875     2.2517 C.3     
  31 F31           -4.6366     2.0636     4.7841 F       
  32 N32           -7.6373    -3.1298     1.3348 N.pl3   
  33 H33            2.6334     2.6431    -1.8321 H       
  34 H34            2.8759     0.2320    -2.2341 H       
  35 H35            1.1585    -1.3436    -1.4699 H       
  36 H36           -4.6442     1.7255    -0.4059 H       
  37 H37           -2.5907     1.3548     3.3262 H       
  38 H38           -6.6786     2.5793     3.2428 H       
  39 H39           -6.6814     2.4184     0.7871 H       
  40 H40           -4.1104    -0.7105     0.9940 H       
  41 H41           -2.4939    -2.4901    -0.6635 H       
  42 H42           -3.8977    -6.1442    -3.4873 H       
  43 H43           -6.2426    -6.3475    -2.4798 H       
  44 H44           -1.8140    -2.3631     2.1357 H       
  45 H45           -2.5653    -0.9756     2.9597 H       
  46 H46           -3.5239    -2.4375     2.6245 H       
  47 H47           -7.5451    -2.4104     1.9788 H       
  48 H48           -8.4681    -3.6274     1.2790 H       
@<TRIPOS>BOND
   1    1    2 ar
   2    1    3 ar
   3    1   10 1
   4    2    7 1
   5    2    6 ar
   6    3    4 ar
   7    3   29 1
   8    4    5 ar
   9    4   33 1
  10    5    6 ar
  11    5   34 1
  12    6   35 1
  13    7    8 2
  14    8    9 1
  15    8   17 1
  16    9   10 am
  17    9   11 1
  18   10   21 2
  19   11   12 ar
  20   11   13 ar
  21   12   16 ar
  22   12   36 1
  23   13   14 ar
  24   13   37 1
  25   14   15 ar
  26   14   31 1
  27   15   16 ar
  28   15   38 1
  29   16   39 1
  30   17   18 1
  31   17   30 1
  32   17   40 1
  33   18   19 1
  34   18   41 1
  35   19   20 ar
  36   19   22 ar
  37   20   25 ar
  38   22   23 ar
  39   22   26 1
  40   23   24 ar
  41   23   28 1
  42   24   25 ar
  43   25   32 1
  44   26   27 2
  45   27   28 1
  46   27   42 1
  47   28   43 1
  48   30   44 1
  49   30   45 1
  50   30   46 1
  51   32   47 1
  52   32   48 1

#	End of record

