#	Name: ASD06170101
#	Creating user name:	WinNT
#	Creation time:	15. 06. 2019 21:05

#	Modifying user name:	WinNT
#	Modification time:	15. 06. 2019 21:05

#	Program:	/corina/corina34_cracker 3.40 0067  02.08.2006

@<TRIPOS>MOLECULE
ASD06170101
  65   69    0    0    0
SMALL
NO_CHARGES


@<TRIPOS>ATOM
   1 N1             0.2750     1.7443    -0.4340 N.pl3   
   2 N2             0.0764     0.4435     0.0382 N.am    
   3 C3             1.2716    -0.0719     0.3934 C.2     
   4 C4             2.2733     0.9722     0.1255 C.2     
   5 C5             1.5838     2.0567    -0.3810 C.2     
   6 C6             3.7205     0.8798     0.3523 C.2     
   7 O7             4.4397     1.8244     0.0857 O.2     
   8 N8             4.2527    -0.2514     0.8559 N.am    
   9 C9            -1.1552    -0.2133     0.1281 C.ar    
  10 C10           -2.0266    -0.2095    -0.9534 C.ar    
  11 C11           -3.2417    -0.8594    -0.8615 C.ar    
  12 C12           -3.5914    -1.5130     0.3059 C.ar    
  13 C13           -2.7263    -1.5183     1.3847 C.ar    
  14 C14           -1.5070    -0.8756     1.2971 C.ar    
  15 O15            1.4803    -1.1820     0.8462 O.2     
  16 C16            5.6377    -0.3912     0.9447 C.ar    
  17 C17            6.4442     0.7415     0.9485 C.ar    
  18 C18            7.8163     0.5915     1.0370 C.ar    
  19 C19            8.3390    -0.6969     1.1194 C.ar    
  20 C20            7.4740    -1.7792     1.1101 C.ar    
  21 N21            6.1693    -1.5999     1.0299 N.ar    
  22 O22            9.6820    -0.8902     1.2074 O.3     
  23 N23           11.4490    -0.3979     4.9012 N.ar    
  24 C24           10.1655    -0.1708     4.7480 C.ar    
  25 C25            9.5360    -0.3258     3.5196 C.ar    
  26 C26           10.2699    -0.7302     2.4183 C.ar    
  27 C27           11.6513    -0.9719     2.5948 C.ar    
  28 C28           12.4600    -1.3842     1.5256 C.ar    
  29 C29           13.7870    -1.6088     1.7275 C.ar    
  30 C30           14.3578    -1.4335     2.9914 C.ar    
  31 C31           13.5906    -1.0302     4.0607 C.ar    
  32 C32           12.2190    -0.7912     3.8797 C.ar    
  33 O33           15.6849    -1.6643     3.1665 O.3     
  34 C34           16.4278    -2.0812     2.0191 C.3     
  35 C35            2.1936     3.3683    -0.8039 C.3     
  36 C36           -0.7829     2.6333    -0.9202 C.3     
  37 C37           -1.2263     3.5643     0.2101 C.3     
  38 C38           -2.3312     4.4928    -0.2977 C.3     
  39 F39           -1.7117     2.8025     1.2784 F       
  40 H40            3.6726    -0.9684     1.1565 H       
  41 H41           -1.7543     0.3014    -1.8651 H       
  42 H42           -3.9197    -0.8568    -1.7022 H       
  43 H43           -4.5424    -2.0202     0.3753 H       
  44 H44           -3.0027    -2.0291     2.2952 H       
  45 H45           -0.8298    -0.8841     2.1384 H       
  46 H46            6.0048     1.7259     0.8828 H       
  47 H47            8.4672     1.4533     1.0417 H       
  48 H48            7.8721    -2.7812     1.1733 H       
  49 H49            9.5826     0.1448     5.6006 H       
  50 H50            8.4778    -0.1318     3.4244 H       
  51 H51           12.0306    -1.5234     0.5445 H       
  52 H52           14.4062    -1.9266     0.9016 H       
  53 H53           14.0412    -0.8976     5.0332 H       
  54 H54           16.0156    -3.0161     1.6393 H       
  55 H55           16.3632    -1.3152     1.2464 H       
  56 H56           17.4713    -2.2304     2.2965 H       
  57 H57            2.2148     4.0500     0.0463 H       
  58 H58            3.2100     3.1987    -1.1591 H       
  59 H59            1.5970     3.8049    -1.6049 H       
  60 H60           -0.4047     3.2269    -1.7525 H       
  61 H61           -1.6325     2.0380    -1.2549 H       
  62 H62           -0.3768     4.1596     0.5448 H       
  63 H63           -3.1808     3.8975    -0.6324 H       
  64 H64           -2.6471     5.1560     0.5076 H       
  65 H65           -1.9530     5.0864    -1.1300 H       
@<TRIPOS>BOND
   1    1    2 1
   2    1    5 1
   3    1   36 1
   4    2    3 am
   5    2    9 1
   6    3    4 1
   7    3   15 2
   8    4    5 2
   9    4    6 1
  10    5   35 1
  11    6    7 2
  12    6    8 am
  13    8   16 1
  14    8   40 1
  15    9   10 ar
  16    9   14 ar
  17   10   11 ar
  18   10   41 1
  19   11   12 ar
  20   11   42 1
  21   12   13 ar
  22   12   43 1
  23   13   14 ar
  24   13   44 1
  25   14   45 1
  26   16   17 ar
  27   16   21 ar
  28   17   18 ar
  29   17   46 1
  30   18   19 ar
  31   18   47 1
  32   19   20 ar
  33   19   22 1
  34   20   21 ar
  35   20   48 1
  36   22   26 1
  37   23   24 ar
  38   23   32 ar
  39   24   25 ar
  40   24   49 1
  41   25   26 ar
  42   25   50 1
  43   26   27 ar
  44   27   28 ar
  45   27   32 ar
  46   28   29 ar
  47   28   51 1
  48   29   30 ar
  49   29   52 1
  50   30   31 ar
  51   30   33 1
  52   31   32 ar
  53   31   53 1
  54   33   34 1
  55   34   54 1
  56   34   55 1
  57   34   56 1
  58   35   57 1
  59   35   58 1
  60   35   59 1
  61   36   37 1
  62   36   60 1
  63   36   61 1
  64   37   38 1
  65   37   39 1
  66   37   62 1
  67   38   63 1
  68   38   64 1
  69   38   65 1

#	End of record

