#	Name: ASD05430567
#	Creating user name:	WinNT
#	Creation time:	15. 06. 2019 21:00

#	Modifying user name:	WinNT
#	Modification time:	15. 06. 2019 21:00

#	Program:	/corina/corina34_cracker 3.40 0067  02.08.2006

@<TRIPOS>MOLECULE
ASD05430567
  27   27    0    0    0
SMALL
NO_CHARGES


@<TRIPOS>ATOM
   1 C1            -0.0159     1.3201     0.0093 C.ar    
   2 N2             0.0021    -0.0041     0.0020 N.ar    
   3 C3             1.1916     2.0037     0.0014 C.ar    
   4 N4             2.3203     1.3156    -0.0130 N.ar    
   5 N5             2.2983     0.0284    -0.0197 N.ar    
   6 C6             1.1598    -0.6391    -0.0124 C.ar    
   7 C7             1.2160     3.5105     0.0088 C.3     
   8 C8             1.1812    -2.1459    -0.0207 C.3     
   9 C9             1.8977    -2.6389    -1.2795 C.3     
  10 C10            1.9215    -2.6523     1.2188 C.3     
  11 C11            1.0852     4.0297    -1.4244 C.3     
  12 C12            0.0506     4.0353     0.8498 C.3     
  13 H13           -0.9525     1.8578     0.0167 H       
  14 H14            2.1572     3.8565     0.4361 H       
  15 H15            0.1589    -2.5239    -0.0130 H       
  16 H16            2.9200    -2.2609    -1.2873 H       
  17 H17            1.9132    -3.7287    -1.2855 H       
  18 H18            1.3703    -2.2781    -2.1626 H       
  19 H19            1.4111    -2.3011     2.1156 H       
  20 H20            1.9371    -3.7421     1.2128 H       
  21 H21            2.9439    -2.2743     1.2111 H       
  22 H22            0.1440     3.6836    -1.8517 H       
  23 H23            1.1028     5.1195    -1.4191 H       
  24 H24            1.9154     3.6557    -2.0236 H       
  25 H25            0.1439     3.6654     1.8709 H       
  26 H26            0.0683     5.1252     0.8551 H       
  27 H27           -0.8905     3.6893     0.4225 H       
@<TRIPOS>BOND
   1    1    2 ar
   2    1    3 ar
   3    1   13 1
   4    2    6 ar
   5    3    4 ar
   6    3    7 1
   7    4    5 ar
   8    5    6 ar
   9    6    8 1
  10    7   11 1
  11    7   12 1
  12    7   14 1
  13    8    9 1
  14    8   10 1
  15    8   15 1
  16    9   16 1
  17    9   17 1
  18    9   18 1
  19   10   19 1
  20   10   20 1
  21   10   21 1
  22   11   22 1
  23   11   23 1
  24   11   24 1
  25   12   25 1
  26   12   26 1
  27   12   27 1

#	End of record

