#	Name: ASD01148256
#	Creating user name:	WinNT
#	Creation time:	15. 06. 2019 19:02

#	Modifying user name:	WinNT
#	Modification time:	15. 06. 2019 19:02

#	Program:	/corina/corina34_cracker 3.40 0067  02.08.2006

@<TRIPOS>MOLECULE
ASD01148256
  55   58    0    0    0
SMALL
NO_CHARGES


@<TRIPOS>ATOM
   1 C1            -0.0167     1.3791     0.0096 C.ar    
   2 C2             0.0021    -0.0041     0.0020 C.ar    
   3 C3            -1.1857    -0.7112     0.0100 C.ar    
   4 C4            -2.3919    -0.0365     0.0257 C.ar    
   5 C5            -2.4113     1.3460     0.0333 C.ar    
   6 C6            -1.2245     2.0540     0.0306 C.ar    
   7 C7            -3.7269     2.0809     0.0503 C.3     
   8 O8            -4.7306     1.3260     0.7589 O.3     
   9 C9            -3.6332     3.3645     0.9093 C.3     
  10 C10           -4.1229     2.8907     2.2645 C.2     
  11 N11           -4.7167     1.7555     2.1059 N.2     
  12 C12           -3.9498     3.6047     3.5448 C.ar    
  13 C13           -4.4525     3.0531     4.7260 C.ar    
  14 C14           -3.2782     4.8295     3.5764 C.ar    
  15 C15           -3.1164     5.4950     4.7705 C.ar    
  16 C16           -3.6238     4.9460     5.9505 C.ar    
  17 C17           -4.2906     3.7189     5.9199 C.ar    
  18 C18           -3.4496     5.6605     7.2326 C.2     
  19 O19           -2.8649     6.7259     7.2601 O.2     
  20 N20           -3.9390     5.1308     8.3711 N.am    
  21 C21           -4.1882     2.4053    -1.3720 C.3     
  22 F22           -4.3301     1.2181    -2.0984 F       
  23 F23           -5.4172     3.0718    -1.3230 F       
  24 F24           -3.2389     3.2226    -1.9951 F       
  25 Cl25           1.4746     2.2678     0.0002 Cl      
  26 N26           -3.7739     5.8081     9.5864 N.pl3   
  27 C27           -4.5878     6.9895     9.8830 C.3     
  28 C28           -2.8333     5.3569    10.5151 C.ar    
  29 C29           -2.6683     6.0273    11.7206 C.ar    
  30 C30           -1.7376     5.5782    12.6368 C.ar    
  31 C31           -0.9705     4.4626    12.3554 C.ar    
  32 C32           -1.1319     3.7932    11.1562 C.ar    
  33 C33           -2.0647     4.2335    10.2379 C.ar    
  34 C34           -1.1654    -2.2180     0.0013 C.3     
  35 F35            0.1596    -2.6665    -0.0147 F       
  36 F36           -1.8070    -2.6997     1.1474 F       
  37 F37           -1.8302    -2.6867    -1.1370 F       
  38 H38            0.9445    -0.5314    -0.0105 H       
  39 H39           -3.3197    -0.5894     0.0316 H       
  40 H40           -1.2398     3.1339     0.0365 H       
  41 H41           -2.6027     3.7144     0.9710 H       
  42 H42           -4.2845     4.1436     0.5133 H       
  43 H43           -4.9685     2.1046     4.7023 H       
  44 H44           -2.8857     5.2538     2.6642 H       
  45 H45           -2.5970     6.4416     4.7950 H       
  46 H46           -4.6828     3.2946     6.8323 H       
  47 H47           -4.4056     4.2806     8.3492 H       
  48 H48           -5.5036     6.6823    10.3881 H       
  49 H49           -4.0262     7.6650    10.5282 H       
  50 H50           -4.8394     7.5001     8.9535 H       
  51 H51           -3.2668     6.8988    11.9408 H       
  52 H52           -1.6086     6.0992    13.5741 H       
  53 H53           -0.2434     4.1136    13.0737 H       
  54 H54           -0.5309     2.9225    10.9394 H       
  55 H55           -2.1902     3.7103     9.3015 H       
@<TRIPOS>BOND
   1    1    2 ar
   2    1   25 1
   3    1    6 ar
   4    2    3 ar
   5    2   38 1
   6    3    4 ar
   7    3   34 1
   8    4    5 ar
   9    4   39 1
  10    5    6 ar
  11    5    7 1
  12    6   40 1
  13    7    8 1
  14    7    9 1
  15    7   21 1
  16    8   11 1
  17    9   10 1
  18    9   41 1
  19    9   42 1
  20   10   11 2
  21   10   12 1
  22   12   13 ar
  23   12   14 ar
  24   13   17 ar
  25   13   43 1
  26   14   15 ar
  27   14   44 1
  28   15   16 ar
  29   15   45 1
  30   16   17 ar
  31   16   18 1
  32   17   46 1
  33   18   19 2
  34   18   20 am
  35   20   26 1
  36   20   47 1
  37   21   22 1
  38   21   23 1
  39   21   24 1
  40   26   27 1
  41   26   28 1
  42   27   48 1
  43   27   49 1
  44   27   50 1
  45   28   29 ar
  46   28   33 ar
  47   29   30 ar
  48   29   51 1
  49   30   31 ar
  50   30   52 1
  51   31   32 ar
  52   31   53 1
  53   32   33 ar
  54   32   54 1
  55   33   55 1
  56   34   35 1
  57   34   36 1
  58   34   37 1

#	End of record

