#	Name: ASD01916106
#	Creating user name:	WinNT
#	Creation time:	15. 06. 2019 20:06

#	Modifying user name:	WinNT
#	Modification time:	15. 06. 2019 20:06

#	Program:	/corina/corina34_cracker 3.40 0067  02.08.2006

@<TRIPOS>MOLECULE
ASD01916106
  39   42    0    0    0
SMALL
NO_CHARGES


@<TRIPOS>ATOM
   1 C1            -0.0169     1.3972     0.0097 C.ar    
   2 C2             0.0021    -0.0041     0.0020 C.ar    
   3 N3            -1.1443    -0.6595     0.0095 N.ar    
   4 C4            -2.2993    -0.0109     0.0240 C.ar    
   5 N5            -3.4810    -0.7398     0.0319 N.am    
   6 C6             1.2018     2.1490     0.0021 C.1     
   7 C7             2.2010     2.7654    -0.0041 C.1     
   8 C8             3.4197     3.5172    -0.0117 C.ar    
   9 C9             3.3829     4.9141    -0.0039 C.ar    
  10 C10            4.5608     5.6316    -0.0113 C.ar    
  11 N11           -2.3607     1.3125     0.0317 N.ar    
  12 C12           -1.2606     2.0429     0.0192 C.ar    
  13 C13            4.6515     2.8575    -0.0212 C.ar    
  14 C14            5.7769     4.9714    -0.0265 C.ar    
  15 N15           -4.7182    -0.1667     0.0469 N.3     
  16 C16           -5.6931    -1.1927    -0.4130 C.3     
  17 C17           -4.9812    -2.5062    -0.0124 C.3     
  18 C18           -3.5235    -2.0847     0.0198 C.2     
  19 C19            5.8212     3.5883    -0.0286 C.ar    
  20 O20           -2.5660    -2.8287     0.0379 O.2     
  21 C21           -5.1071     0.1652     1.4403 C.3     
  22 C22           -6.6548     0.1453     1.4005 C.3     
  23 C23           -6.9604    -1.0279     0.4421 C.3     
  24 H24            0.9398    -0.5396    -0.0102 H       
  25 H25            2.4345     5.4307     0.0077 H       
  26 H26            4.5340     6.7112    -0.0056 H       
  27 H27           -1.3184     3.1213     0.0259 H       
  28 H28            4.6876     1.7781    -0.0225 H       
  29 H29            6.6961     5.5385    -0.0323 H       
  30 H30           -5.8921    -1.1337    -1.4830 H       
  31 H31           -5.3128    -2.8430     0.9698 H       
  32 H32           -5.1424    -3.2794    -0.7636 H       
  33 H33            6.7740     3.0799    -0.0359 H       
  34 H34           -4.7315    -0.5878     2.1331 H       
  35 H35           -4.7432     1.1555     1.7145 H       
  36 H36           -7.0636    -0.0499     2.3919 H       
  37 H37           -7.0424     1.0819     0.9998 H       
  38 H38           -7.8145    -0.7862    -0.1907 H       
  39 H39           -7.1548    -1.9383     1.0091 H       
@<TRIPOS>BOND
   1    1    2 ar
   2    1    6 1
   3    1   12 ar
   4    2    3 ar
   5    2   24 1
   6    3    4 ar
   7    4   11 ar
   8    4    5 1
   9    5   15 1
  10    5   18 am
  11    6    7 3
  12    7    8 1
  13    8    9 ar
  14    8   13 ar
  15    9   10 ar
  16    9   25 1
  17   10   14 ar
  18   10   26 1
  19   11   12 ar
  20   12   27 1
  21   13   19 ar
  22   13   28 1
  23   14   19 ar
  24   14   29 1
  25   15   21 1
  26   15   16 1
  27   16   17 1
  28   16   23 1
  29   16   30 1
  30   17   18 1
  31   17   31 1
  32   17   32 1
  33   18   20 2
  34   19   33 1
  35   21   22 1
  36   21   34 1
  37   21   35 1
  38   22   23 1
  39   22   36 1
  40   22   37 1
  41   23   38 1
  42   23   39 1

#	End of record

