#	Name: ASD03430567
#	Creating user name:	WinNT
#	Creation time:	15. 06. 2019 20:41

#	Modifying user name:	WinNT
#	Modification time:	15. 06. 2019 20:41

#	Program:	/corina/corina34_cracker 3.40 0067  02.08.2006

@<TRIPOS>MOLECULE
ASD03430567
  40   43    0    0    0
SMALL
NO_CHARGES


@<TRIPOS>ATOM
   1 N1             2.2389     2.0876    -2.7118 N.am    
   2 C2             1.2914     1.5008    -1.9613 C.2     
   3 C3             1.8802     0.2126    -1.4271 C.3     
   4 C4             3.2811     0.1849    -1.9943 C.ar    
   5 C5             4.3185    -0.7144    -1.8815 C.ar    
   6 C6             5.5212    -0.4710    -2.5290 C.ar    
   7 C7             5.6720     0.6808    -3.2930 C.ar    
   8 C8             4.6265     1.5822    -3.4032 C.ar    
   9 C9             3.4192     1.3405    -2.7520 C.ar    
  10 O10            6.5410    -1.3641    -2.4030 O.3     
  11 O11            6.8416     0.9348    -3.9425 O.3     
  12 C12            7.9923     0.2035    -3.5061 C.3     
  13 C13            7.5984    -1.2730    -3.3641 C.3     
  14 C14            1.9210     0.2355     0.0792 C.2     
  15 O15            1.0522    -0.3297     0.7212 O.co2   
  16 O16            2.8228     0.8193     0.6558 O.co2   
  17 O17            0.1743     1.9239    -1.7510 O.2     
  18 C18            1.0888    -0.9726    -1.9171 C.ar    
  19 C19            1.5100    -2.2556    -1.6201 C.ar    
  20 C20            0.7842    -3.3426    -2.0695 C.ar    
  21 C21           -0.3632    -3.1470    -2.8156 C.ar    
  22 C22           -0.7847    -1.8644    -3.1117 C.ar    
  23 C23           -0.0611    -0.7770    -2.6585 C.ar    
  24 N24            2.7384    -2.4650    -0.8214 N.pl3   
  25 O25            3.4123    -3.4653    -0.9914 O.2     
  26 O26            3.0754    -1.6371     0.0060 O.2     
  27 C27            2.0538     3.3608    -3.4124 C.3     
  28 H28            4.1958    -1.6088    -1.2887 H       
  29 H29            4.7480     2.4769    -3.9958 H       
  30 H30            8.7909     0.3018    -4.2414 H       
  31 H31            8.3289     0.5883    -2.5434 H       
  32 H32            8.4568    -1.8512    -3.0222 H       
  33 H33            7.2557    -1.6561    -4.3253 H       
  34 H34            1.1136    -4.3448    -1.8382 H       
  35 H35           -0.9300    -3.9964    -3.1674 H       
  36 H36           -1.6808    -1.7116    -3.6948 H       
  37 H37           -0.3925     0.2252    -2.8867 H       
  38 H38            1.0479     3.7361    -3.2243 H       
  39 H39            2.7848     4.0840    -3.0509 H       
  40 H40            2.1910     3.2097    -4.4831 H       
@<TRIPOS>BOND
   1    1    2 am
   2    1    9 1
   3    1   27 1
   4    2    3 1
   5    2   17 2
   6    3    4 1
   7    3   14 1
   8    3   18 1
   9    4    5 ar
  10    4    9 ar
  11    5    6 ar
  12    5   28 1
  13    6    7 ar
  14    6   10 1
  15    7    8 ar
  16    7   11 1
  17    8    9 ar
  18    8   29 1
  19   10   13 1
  20   11   12 1
  21   12   13 1
  22   12   30 1
  23   12   31 1
  24   13   32 1
  25   13   33 1
  26   14   15 ar
  27   14   16 ar
  28   18   19 ar
  29   18   23 ar
  30   19   20 ar
  31   19   24 1
  32   20   21 ar
  33   20   34 1
  34   21   22 ar
  35   21   35 1
  36   22   23 ar
  37   22   36 1
  38   23   37 1
  39   24   25 2
  40   24   26 2
  41   27   38 1
  42   27   39 1
  43   27   40 1

#	End of record

