#	Name: ASD05740191
#	Creating user name:	WinNT
#	Creation time:	15. 06. 2019 21:03

#	Modifying user name:	WinNT
#	Modification time:	15. 06. 2019 21:03

#	Program:	/corina/corina34_cracker 3.40 0067  02.08.2006

@<TRIPOS>MOLECULE
ASD05740191
  64   68    0    0    0
SMALL
NO_CHARGES


@<TRIPOS>ATOM
   1 C1             1.2507    -1.3239     0.0103 C.3     
   2 N2             0.3615    -0.6210     0.9456 N.3     
   3 C3            -0.9633    -1.0450     0.7926 C.ar    
   4 C4            -1.9632    -0.4994     1.5871 C.ar    
   5 C5            -3.2703    -0.9177     1.4360 C.ar    
   6 C6            -3.5851    -1.8844     0.4900 C.ar    
   7 C7            -2.5852    -2.4303    -0.3041 C.ar    
   8 C8            -1.2791    -2.0073    -0.1577 C.ar    
   9 N9            -4.9111    -2.3091     0.3372 N.pl3   
  10 C10           -5.9476    -1.4124     0.5083 C.ar    
  11 N11           -5.6581    -0.1299     0.6997 N.ar    
  12 N12           -7.1930    -1.8629     0.4699 N.ar    
  13 C13           -8.2130    -1.0298     0.6304 C.ar    
  14 C14           -7.9432     0.3403     0.8419 C.ar    
  15 C15           -6.6113     0.7688     0.8686 C.ar    
  16 N16           -9.5124    -1.4657     0.5954 N.am    
  17 C17          -10.5345    -0.6072     0.7595 C.2     
  18 C18          -10.3214     0.7697     0.9731 C.2     
  19 C19           -9.0575     1.2663     1.0197 C.2     
  20 C20           -9.7915    -2.8870     0.3755 C.3     
  21 O21          -11.6765    -1.0313     0.7222 O.2     
  22 C22            0.8143    -0.7984     2.3324 C.3     
  23 C23            2.2364    -0.2511     2.4758 C.3     
  24 N24            3.1257    -0.9539     1.5404 N.3     
  25 C25            2.6728    -0.7766     0.1537 C.3     
  26 C26           -9.8013    -3.6076     1.6990 C.ar    
  27 C27           -9.9860    -5.6391     2.9527 C.ar    
  28 C28           -9.6490    -3.5582     4.0879 C.ar    
  29 C29           -9.6401    -2.8973     2.8741 C.ar    
  30 C30            4.5164    -0.5089     1.7011 C.3     
  31 C31           -9.9770    -4.9780     1.7384 C.ar    
  32 C32          -10.1594    -5.7514     0.4580 C.3     
  33 C33           -9.8187    -4.9297     4.1270 C.ar    
  34 C34           -9.4733    -2.7839     5.3688 C.3     
  35 H35            1.2469    -2.3901     0.2365 H       
  36 H36            0.9020    -1.1671    -1.0105 H       
  37 H37           -1.7183     0.2519     2.3233 H       
  38 H38           -4.0479    -0.4934     2.0539 H       
  39 H39           -2.8300    -3.1827    -1.0393 H       
  40 H40           -0.5015    -2.4318    -0.7754 H       
  41 H41           -5.1015    -3.2330     0.1112 H       
  42 H42           -6.3684     1.8090     1.0283 H       
  43 H43          -11.1652     1.4317     1.1004 H       
  44 H44           -8.8819     2.3193     1.1831 H       
  45 H45          -10.7638    -2.9963    -0.1049 H       
  46 H46           -9.0198    -3.3140    -0.2650 H       
  47 H47            0.1474    -0.2586     3.0046 H       
  48 H48            0.8056    -1.8587     2.5850 H       
  49 H49            2.2402     0.8152     2.2495 H       
  50 H50            2.5852    -0.4078     3.4965 H       
  51 H51            3.3398    -1.3164    -0.5185 H       
  52 H52            2.6816     0.2837    -0.0989 H       
  53 H53          -10.1186    -6.7105     2.9832 H       
  54 H54           -9.5069    -1.8259     2.8435 H       
  55 H55            4.8480    -0.7133     2.7191 H       
  56 H56            5.1530    -1.0448     0.9971 H       
  57 H57            4.5801     0.5617     1.5063 H       
  58 H58           -9.1863    -6.0700     0.0842 H       
  59 H59          -10.7802    -6.6270     0.6477 H       
  60 H60          -10.6435    -5.1166    -0.2841 H       
  61 H61           -9.8258    -5.4462     5.0755 H       
  62 H62          -10.4487    -2.4692     5.7398 H       
  63 H63           -8.9886    -3.4166     6.1123 H       
  64 H64           -8.8555    -1.9058     5.1807 H       
@<TRIPOS>BOND
   1    1    2 1
   2    1   25 1
   3    1   35 1
   4    1   36 1
   5    2    3 1
   6    2   22 1
   7    3    4 ar
   8    3    8 ar
   9    4    5 ar
  10    4   37 1
  11    5    6 ar
  12    5   38 1
  13    6    7 ar
  14    6    9 1
  15    7    8 ar
  16    7   39 1
  17    8   40 1
  18    9   10 1
  19    9   41 1
  20   10   11 ar
  21   10   12 ar
  22   11   15 ar
  23   12   13 ar
  24   13   14 ar
  25   13   16 1
  26   14   15 ar
  27   14   19 1
  28   15   42 1
  29   16   17 am
  30   16   20 1
  31   17   18 1
  32   17   21 2
  33   18   19 2
  34   18   43 1
  35   19   44 1
  36   20   26 1
  37   20   45 1
  38   20   46 1
  39   22   23 1
  40   22   47 1
  41   22   48 1
  42   23   24 1
  43   23   49 1
  44   23   50 1
  45   24   25 1
  46   24   30 1
  47   25   51 1
  48   25   52 1
  49   26   29 ar
  50   26   31 ar
  51   27   33 ar
  52   27   31 ar
  53   27   53 1
  54   28   29 ar
  55   28   34 1
  56   28   33 ar
  57   29   54 1
  58   30   55 1
  59   30   56 1
  60   30   57 1
  61   31   32 1
  62   32   58 1
  63   32   59 1
  64   32   60 1
  65   33   61 1
  66   34   62 1
  67   34   63 1
  68   34   64 1

#	End of record

