#	Name: ASD01912890
#	Creating user name:	WinNT
#	Creation time:	15. 06. 2019 20:00

#	Modifying user name:	WinNT
#	Modification time:	15. 06. 2019 20:00

#	Program:	/corina/corina34_cracker 3.40 0067  02.08.2006

@<TRIPOS>MOLECULE
ASD01912890
  32   34    0    0    0
SMALL
NO_CHARGES


@<TRIPOS>ATOM
   1 C1            -0.0165     1.3668     0.0096 C.2     
   2 N2             0.0021    -0.0041     0.0020 N.pl3   
   3 C3            -1.2025    -0.6917     0.0098 C.2     
   4 C4            -2.3631    -0.0490     0.0244 C.2     
   5 N5            -2.4362     1.3300     0.0325 N.am    
   6 C6            -1.3026     2.0665     0.0309 C.2     
   7 C7             2.0549     0.6112    -0.0143 C.2     
   8 N8             1.2243    -0.4045    -0.0118 N.2     
   9 O9            -1.3500     3.2834     0.0380 O.2     
  10 C10            3.5593     0.5254    -0.0291 C.3     
  11 O11            4.0220     0.5049    -1.3810 O.3     
  12 C12            5.3653     0.4290    -1.5723 C.ar    
  13 C13            5.8837     0.4051    -2.8589 C.ar    
  14 C14            7.2495     0.3279    -3.0507 C.ar    
  15 C15            8.0998     0.2745    -1.9617 C.ar    
  16 C16            7.5857     0.2977    -0.6784 C.ar    
  17 C17            6.2209     0.3811    -0.4813 C.ar    
  18 C18            1.3011     1.7836    -0.0008 C.2     
  19 C19            1.8130     3.2010     0.0015 C.3     
  20 H20           -1.1956    -1.7717     0.0036 H       
  21 H21           -3.2787    -0.6218     0.0296 H       
  22 H22           -3.3006     1.7700     0.0431 H       
  23 H23            3.9777     1.3907     0.4850 H       
  24 H24            3.8762    -0.3864     0.4772 H       
  25 H25            5.2199     0.4464    -3.7099 H       
  26 H26            7.6535     0.3088    -4.0521 H       
  27 H27            9.1674     0.2141    -2.1138 H       
  28 H28            8.2519     0.2552     0.1706 H       
  29 H29            5.8198     0.3993     0.5213 H       
  30 H30            1.9461     3.5376     1.0297 H       
  31 H31            2.7686     3.2431    -0.5212 H       
  32 H32            1.0945     3.8476    -0.5023 H       
@<TRIPOS>BOND
   1    1    2 1
   2    1   18 2
   3    1    6 1
   4    2    3 1
   5    2    8 1
   6    3    4 2
   7    3   20 1
   8    4    5 1
   9    4   21 1
  10    5    6 am
  11    5   22 1
  12    6    9 2
  13    7    8 2
  14    7   10 1
  15    7   18 1
  16   10   11 1
  17   10   23 1
  18   10   24 1
  19   11   12 1
  20   12   13 ar
  21   12   17 ar
  22   13   14 ar
  23   13   25 1
  24   14   15 ar
  25   14   26 1
  26   15   16 ar
  27   15   27 1
  28   16   17 ar
  29   16   28 1
  30   17   29 1
  31   18   19 1
  32   19   30 1
  33   19   31 1
  34   19   32 1

#	End of record

