#	Name: ASD02198326
#	Creating user name:	WinNT
#	Creation time:	15. 06. 2019 20:19

#	Modifying user name:	WinNT
#	Modification time:	15. 06. 2019 20:19

#	Program:	/corina/corina34_cracker 3.40 0067  02.08.2006

@<TRIPOS>MOLECULE
ASD02198326
  45   48    0    0    0
SMALL
NO_CHARGES


@<TRIPOS>ATOM
   1 C1             0.6932     2.4055     2.9093 C.2     
   2 C2             0.5089     1.1348     3.4240 C.2     
   3 S3             1.9856     2.3171     1.7153 S.3     
   4 C4             2.1586     0.6416     2.0020 C.2     
   5 N5             1.3139     0.2368     2.9066 N.2     
   6 N6            -0.4355     0.8385     4.3934 N.pl3   
   7 C7            -0.0263     3.5596     3.2701 C.2     
   8 C8             0.3938     4.8836     2.7587 C.ar    
   9 O9            -0.9958     3.4692     4.0041 O.2     
  10 N10            3.0685    -0.1706     1.3633 N.pl3   
  11 C11           -0.5009     5.9544     2.7684 C.ar    
  12 C12            1.6877     5.0675     2.2702 C.ar    
  13 C13            2.0739     6.3039     1.7947 C.ar    
  14 C14            1.1815     7.3607     1.8016 C.ar    
  15 C15           -0.1028     7.1868     2.2899 C.ar    
  16 C16            3.0379    -1.5546     1.5709 C.ar    
  17 C17            1.8560    -2.1732     1.9573 C.ar    
  18 C18            1.8264    -3.5384     2.1614 C.ar    
  19 C19            2.9770    -4.2923     1.9805 C.ar    
  20 C20            4.1583    -3.6750     1.5949 C.ar    
  21 C21            4.1879    -2.3106     1.3849 C.ar    
  22 Cl22          -1.2160     8.5188     2.2941 Cl      
  23 O23            2.9472    -5.6366     2.1817 O.3     
  24 C24            2.9789    -6.0909     3.4619 C.ar    
  25 C25            2.9389    -5.1932     4.5192 C.ar    
  26 C26            3.0455    -7.4538     3.7143 C.ar    
  27 C27            3.0771    -7.9130     5.0167 C.ar    
  28 C28            3.0425    -7.0160     6.0684 C.ar    
  29 C29            2.9708    -5.6577     5.8197 C.ar    
  30 H30           -1.0071     1.5393     4.7439 H       
  31 H31           -0.5250    -0.0699     4.7216 H       
  32 H32            3.7308     0.2163     0.7694 H       
  33 H33           -1.5025     5.8194     3.1490 H       
  34 H34            2.3859     4.2436     2.2647 H       
  35 H35            3.0753     6.4469     1.4164 H       
  36 H36            1.4889     8.3266     1.4289 H       
  37 H37            0.9603    -1.5864     2.0985 H       
  38 H38            0.9075    -4.0195     2.4623 H       
  39 H39            5.0536    -4.2624     1.4546 H       
  40 H40            5.1074    -1.8303     1.0843 H       
  41 H41            2.8833    -4.1321     4.3255 H       
  42 H42            3.0722    -8.1549     2.8932 H       
  43 H43            3.1286    -8.9737     5.2137 H       
  44 H44            3.0673    -7.3771     7.0859 H       
  45 H45            2.9443    -4.9591     6.6429 H       
@<TRIPOS>BOND
   1    1    2 2
   2    1    3 1
   3    1    7 1
   4    2    6 1
   5    2    5 1
   6    3    4 1
   7    4    5 2
   8    4   10 1
   9    6   30 1
  10    6   31 1
  11    7    8 1
  12    7    9 2
  13    8   11 ar
  14    8   12 ar
  15   10   16 1
  16   10   32 1
  17   11   15 ar
  18   11   33 1
  19   12   13 ar
  20   12   34 1
  21   13   14 ar
  22   13   35 1
  23   14   15 ar
  24   14   36 1
  25   15   22 1
  26   16   17 ar
  27   16   21 ar
  28   17   18 ar
  29   17   37 1
  30   18   19 ar
  31   18   38 1
  32   19   20 ar
  33   19   23 1
  34   20   21 ar
  35   20   39 1
  36   21   40 1
  37   23   24 1
  38   24   25 ar
  39   24   26 ar
  40   25   29 ar
  41   25   41 1
  42   26   27 ar
  43   26   42 1
  44   27   28 ar
  45   27   43 1
  46   28   29 ar
  47   28   44 1
  48   29   45 1

#	End of record

