#	Name: ASD01917802
#	Creating user name:	WinNT
#	Creation time:	15. 06. 2019 20:10

#	Modifying user name:	WinNT
#	Modification time:	15. 06. 2019 20:10

#	Program:	/corina/corina34_cracker 3.40 0067  02.08.2006

@<TRIPOS>MOLECULE
ASD01917802
  50   52    0    0    0
SMALL
NO_CHARGES


@<TRIPOS>ATOM
   1 C1             0.1627     1.4017    -0.2760 C.2     
   2 C2             0.2134     0.0659    -0.4413 C.2     
   3 C3            -0.9952    -0.8308    -0.5328 C.3     
   4 C4            -2.2104    -0.0830     0.0299 C.3     
   5 N5            -2.2255     1.2858    -0.5074 N.am    
   6 C6            -1.1176     2.1898    -0.1487 C.3     
   7 C7            -3.2264     1.7032    -1.3078 C.2     
   8 O8            -4.0794     0.9209    -1.6702 O.2     
   9 C9            -3.2855     3.1418    -1.7525 C.3     
  10 O10            1.4241     1.8510    -0.2450 O.3     
  11 C11            2.2347     0.7906    -0.3876 C.2     
  12 N12            1.5048    -0.2848    -0.5054 N.2     
  13 C13            3.7409     0.8347    -0.4088 C.3     
  14 O14            4.1935     1.0110    -1.7527 O.3     
  15 C15            5.5370     1.0719    -1.9483 C.ar    
  16 C16            6.0458     1.2420    -3.2277 C.ar    
  17 C17            7.4119     1.3035    -3.4239 C.ar    
  18 C18            8.2718     1.1958    -2.3465 C.ar    
  19 C19            7.7672     1.0259    -1.0705 C.ar    
  20 C20            6.4017     0.9699    -0.8683 C.ar    
  21 C21           -4.0941     3.9557    -0.7402 C.3     
  22 C22           -3.4027     3.9050     0.6237 C.3     
  23 C23           -4.1869     5.4084    -1.2113 C.3     
  24 C24           -5.5015     3.3675    -0.6206 C.3     
  25 N25           -3.9294     3.2209    -3.0705 N.3     
  26 H26           -1.1778    -1.0923    -1.5751 H       
  27 H27           -0.8227    -1.7367     0.0482 H       
  28 H28           -3.1242    -0.5998    -0.2637 H       
  29 H29           -2.1445    -0.0468     1.1173 H       
  30 H30           -1.2390     2.5363     0.8777 H       
  31 H31           -1.0985     3.0414    -0.8288 H       
  32 H32           -2.2745     3.5440    -1.8173 H       
  33 H33            4.0887     1.6665     0.2038 H       
  34 H34            4.1374    -0.0997    -0.0115 H       
  35 H35            5.3746     1.3258    -4.0696 H       
  36 H36            7.8085     1.4356    -4.4197 H       
  37 H37            9.3394     1.2442    -2.5020 H       
  38 H38            8.4409     0.9413    -0.2307 H       
  39 H39            6.0080     0.8371     0.1286 H       
  40 H40           -2.3797     4.2684     0.5261 H       
  41 H41           -3.9456     4.5333     1.3299 H       
  42 H42           -3.3902     2.8773     0.9868 H       
  43 H43           -4.6795     5.4445    -2.1830 H       
  44 H44           -4.7629     5.9882    -0.4902 H       
  45 H45           -3.1842     5.8274    -1.2965 H       
  46 H46           -5.4354     2.3326    -0.2850 H       
  47 H47           -6.0776     3.9473     0.1005 H       
  48 H48           -5.9941     3.4036    -1.5923 H       
  49 H49           -4.8687     2.8539    -3.0367 H       
  50 H50           -3.9235     4.1676    -3.4196 H       
@<TRIPOS>BOND
   1    1    2 2
   2    1   10 1
   3    1    6 1
   4    2    3 1
   5    2   12 1
   6    3    4 1
   7    3   26 1
   8    3   27 1
   9    4    5 1
  10    4   28 1
  11    4   29 1
  12    5    6 1
  13    5    7 am
  14    6   30 1
  15    6   31 1
  16    7    8 2
  17    7    9 1
  18    9   21 1
  19    9   25 1
  20    9   32 1
  21   10   11 1
  22   11   12 2
  23   11   13 1
  24   13   14 1
  25   13   33 1
  26   13   34 1
  27   14   15 1
  28   15   16 ar
  29   15   20 ar
  30   16   17 ar
  31   16   35 1
  32   17   18 ar
  33   17   36 1
  34   18   19 ar
  35   18   37 1
  36   19   20 ar
  37   19   38 1
  38   20   39 1
  39   21   22 1
  40   21   23 1
  41   21   24 1
  42   22   40 1
  43   22   41 1
  44   22   42 1
  45   23   43 1
  46   23   44 1
  47   23   45 1
  48   24   46 1
  49   24   47 1
  50   24   48 1
  51   25   49 1
  52   25   50 1

#	End of record

