#	Name: ASD03082206
#	Creating user name:	WinNT
#	Creation time:	15. 06. 2019 20:27

#	Modifying user name:	WinNT
#	Modification time:	15. 06. 2019 20:27

#	Program:	/corina/corina34_cracker 3.40 0067  02.08.2006

@<TRIPOS>MOLECULE
ASD03082206
  44   46    0    0    0
SMALL
NO_CHARGES


@<TRIPOS>ATOM
   1 N1             0.2220     1.8035    -0.2065 N.pl3   
   2 N2             0.0186     0.4151    -0.2596 N.2     
   3 C3             1.1741    -0.1516    -0.0004 C.2     
   4 N4             2.0872     0.7984     0.2114 N.2     
   5 C5             1.5284     1.9865     0.0906 C.2     
   6 N6             1.4098    -1.5269     0.0466 N.pl3   
   7 C7             0.3433    -2.4238    -0.0747 C.ar    
   8 C8             0.5660    -3.7086    -0.5535 C.ar    
   9 C9            -0.4884    -4.5923    -0.6725 C.ar    
  10 C10           -1.7672    -4.1983    -0.3154 C.ar    
  11 C11           -1.9915    -2.9183     0.1620 C.ar    
  12 C12           -0.9388    -2.0329     0.2885 C.ar    
  13 C13           -0.2475    -5.9864    -1.1919 C.3     
  14 F14            1.1113    -6.1470    -1.4835 F       
  15 F15           -0.6294    -6.9182    -0.2208 F       
  16 F16           -1.0008    -6.1879    -2.3534 F       
  17 N17            4.2086     4.5360     0.2932 N.ar    
  18 C18            3.5977     3.3776     0.1515 C.ar    
  19 C19            2.2099     3.2889     0.2509 C.ar    
  20 C20            1.4701     4.4518     0.5044 C.ar    
  21 C21            2.1502     5.6443     0.6461 C.ar    
  22 C22            3.5382     5.6534     0.5335 C.ar    
  23 C23           -0.7809     2.8468    -0.4343 C.3     
  24 O24           -1.4200     3.1712     0.8020 O.3     
  25 F25           -2.7974    -5.0643    -0.4336 F       
  26 N26            4.2287     6.8492     0.6749 N.pl3   
  27 C27            3.4974     8.0904     0.9407 C.3     
  28 C28            4.4872     9.2518     1.0518 C.3     
  29 H29            2.3131    -1.8605     0.1635 H       
  30 H30            1.5629    -4.0161    -0.8328 H       
  31 H31           -2.9895    -2.6132     0.4399 H       
  32 H32           -1.1134    -1.0359     0.6652 H       
  33 H33            4.1776     2.4877    -0.0436 H       
  34 H34            0.3938     4.4157     0.5866 H       
  35 H35            1.6121     6.5601     0.8417 H       
  36 H36           -0.2954     3.7359    -0.8365 H       
  37 H37           -1.5252     2.4865    -1.1445 H       
  38 H38           -2.0977     3.8569     0.7264 H       
  39 H39            5.1955     6.8629     0.5977 H       
  40 H40            2.8008     8.2835     0.1249 H       
  41 H41            2.9446     7.9934     1.8752 H       
  42 H42            3.9430    10.1753     1.2496 H       
  43 H43            5.1838     9.0587     1.8676 H       
  44 H44            5.0399     9.3487     0.1174 H       
@<TRIPOS>BOND
   1    1    2 1
   2    1    5 1
   3    1   23 1
   4    2    3 2
   5    3    4 1
   6    3    6 1
   7    4    5 2
   8    5   19 1
   9    6    7 1
  10    6   29 1
  11    7    8 ar
  12    7   12 ar
  13    8    9 ar
  14    8   30 1
  15    9   10 ar
  16    9   13 1
  17   10   11 ar
  18   10   25 1
  19   11   12 ar
  20   11   31 1
  21   12   32 1
  22   13   14 1
  23   13   15 1
  24   13   16 1
  25   17   18 ar
  26   17   22 ar
  27   18   19 ar
  28   18   33 1
  29   19   20 ar
  30   20   21 ar
  31   20   34 1
  32   21   22 ar
  33   21   35 1
  34   22   26 1
  35   23   24 1
  36   23   36 1
  37   23   37 1
  38   24   38 1
  39   26   27 1
  40   26   39 1
  41   27   28 1
  42   27   40 1
  43   27   41 1
  44   28   42 1
  45   28   43 1
  46   28   44 1

#	End of record

