#	Name: ASD01411056
#	Creating user name:	WinNT
#	Creation time:	15. 06. 2019 19:19

#	Modifying user name:	WinNT
#	Modification time:	15. 06. 2019 19:19

#	Program:	/corina/corina34_cracker 3.40 0067  02.08.2006

@<TRIPOS>MOLECULE
ASD01411056
  37   40    0    0    0
SMALL
NO_CHARGES


@<TRIPOS>ATOM
   1 C1             0.0375     1.3902     0.6028 C.ar    
   2 C2             0.0572    -0.0056     0.6014 C.ar    
   3 C3             1.1837     2.1048     0.4007 C.ar    
   4 N4            -1.1281    -0.7142     0.8103 N.pl3   
   5 C5             1.2392    -0.6936     0.3948 C.ar    
   6 C6             2.3878     1.4352     0.1906 C.ar    
   7 C7             2.4197     0.0208     0.1868 C.ar    
   8 C8             3.6518     2.1454    -0.0326 C.ar    
   9 C9             3.7027    -0.6494    -0.0376 C.ar    
  10 C10            4.8288     1.3886    -0.2382 C.ar    
  11 C11            3.7042     3.5405    -0.0445 C.ar    
  12 C12            3.7640    -2.1286    -0.0470 C.ar    
  13 N13            4.7987     0.0469    -0.2308 N.ar    
  14 C14            6.0400     2.0646    -0.4521 C.ar    
  15 C15            4.8921     4.1773    -0.2551 C.ar    
  16 C16            2.7990    -2.8653    -0.7342 C.ar    
  17 C17            4.7903    -2.7914     0.6266 C.ar    
  18 C18            6.0635     3.4443    -0.4584 C.ar    
  19 C19            2.8616    -4.2436    -0.7392 C.ar    
  20 C20            4.8419    -4.1701     0.6142 C.ar    
  21 N21            7.2697     4.1140    -0.6714 N.pl3   
  22 C22            3.8786    -4.8952    -0.0645 C.ar    
  23 H23           -1.9597    -0.2363     0.9553 H       
  24 H24           -1.1197    -1.6841     0.8102 H       
  25 H25            8.0859     3.6096    -0.8141 H       
  26 H26            7.2917     5.0837    -0.6769 H       
  27 H27           -0.8954     1.9109     0.7609 H       
  28 H28            1.1570     3.1844     0.4034 H       
  29 H29            1.2484    -1.7735     0.3948 H       
  30 H30            2.8038     4.1159     0.1128 H       
  31 H31            6.9509     1.5066    -0.6109 H       
  32 H32            4.9272     5.2567    -0.2637 H       
  33 H33            2.0044    -2.3578    -1.2610 H       
  34 H34            5.5430    -2.2265     1.1564 H       
  35 H35            2.1149    -4.8151    -1.2705 H       
  36 H36            5.6361    -4.6844     1.1350 H       
  37 H37            3.9233    -5.9742    -0.0713 H       
@<TRIPOS>BOND
   1    1    2 ar
   2    1    3 ar
   3    1   27 1
   4    2    4 1
   5    2    5 ar
   6    3    6 ar
   7    3   28 1
   8    4   23 1
   9    4   24 1
  10    5    7 ar
  11    5   29 1
  12    6    7 ar
  13    6    8 ar
  14    7    9 ar
  15    8   10 ar
  16    8   11 ar
  17    9   12 1
  18    9   13 ar
  19   10   14 ar
  20   10   13 ar
  21   11   15 ar
  22   11   30 1
  23   12   16 ar
  24   12   17 ar
  25   14   18 ar
  26   14   31 1
  27   15   18 ar
  28   15   32 1
  29   16   19 ar
  30   16   33 1
  31   17   20 ar
  32   17   34 1
  33   18   21 1
  34   19   22 ar
  35   19   35 1
  36   20   22 ar
  37   20   36 1
  38   21   25 1
  39   21   26 1
  40   22   37 1

#	End of record

