#	Name: ASD03430780
#	Creating user name:	WinNT
#	Creation time:	15. 06. 2019 20:41

#	Modifying user name:	WinNT
#	Modification time:	15. 06. 2019 20:41

#	Program:	/corina/corina34_cracker 3.40 0067  02.08.2006

@<TRIPOS>MOLECULE
ASD03430780
  35   39    0    0    0
SMALL
NO_CHARGES


@<TRIPOS>ATOM
   1 C1            -0.0167     1.3826     0.0096 C.ar    
   2 C2             0.0021    -0.0041     0.0020 C.ar    
   3 C3             1.2023    -0.6817    -0.0156 C.ar    
   4 C4             2.4085     0.0132    -0.0152 C.ar    
   5 C5             2.3860     1.4038    -0.0116 C.ar    
   6 C6             1.1811     2.0870     0.0020 C.ar    
   7 C7             1.5507    -2.1456    -0.0501 C.3     
   8 C8             3.0365    -2.1455    -0.4357 C.3     
   9 C9             0.4281    -3.8624     1.0048 C.ar    
  10 C10            1.3142    -2.8207     1.2681 C.ar    
  11 C11            0.7181    -2.9062    -1.0419 C.2     
  12 N12            0.0996    -3.8857    -0.3528 N.am    
  13 O13            0.6208    -2.6825    -2.2300 O.2     
  14 C14            1.7777    -2.6013     2.5467 C.ar    
  15 C15            1.3641    -3.4202     3.5841 C.ar    
  16 C16            0.4853    -4.4574     3.3332 C.ar    
  17 C17            0.0178    -4.6804     2.0543 C.ar    
  18 O18            3.4712    -0.8417    -0.0049 O.3     
  19 O19           -1.2113     2.0359     0.0189 O.3     
  20 C20           -1.1867     3.4166     0.3975 C.3     
  21 C21           -0.0352     4.0995    -0.3528 C.3     
  22 O22            1.1864     3.4486     0.0115 O.3     
  23 Br23           2.9797    -1.1814     2.8854 Br      
  24 H24           -0.9269    -0.5549     0.0102 H       
  25 H25            3.3147     1.9549    -0.0191 H       
  26 H26            3.5748    -2.9288     0.0979 H       
  27 H27            3.1567    -2.2571    -1.5133 H       
  28 H28           -0.5035    -4.5315    -0.7529 H       
  29 H29            1.7275    -3.2491     4.5866 H       
  30 H30            0.1629    -5.0961     4.1422 H       
  31 H31           -0.6687    -5.4928     1.8665 H       
  32 H32           -2.1317     3.8885     0.1286 H       
  33 H33           -1.0260     3.5003     1.4723 H       
  34 H34           -0.1923     4.0096    -1.4276 H       
  35 H35            0.0117     5.1523    -0.0744 H       
@<TRIPOS>BOND
   1    1    2 ar
   2    1    6 ar
   3    1   19 1
   4    2    3 ar
   5    2   24 1
   6    3    4 ar
   7    3    7 1
   8    4    5 ar
   9    4   18 1
  10    5    6 ar
  11    5   25 1
  12    6   22 1
  13    7    8 1
  14    7   10 1
  15    7   11 1
  16    8   18 1
  17    8   26 1
  18    8   27 1
  19    9   10 ar
  20    9   12 1
  21    9   17 ar
  22   10   14 ar
  23   11   12 am
  24   11   13 2
  25   12   28 1
  26   14   15 ar
  27   14   23 1
  28   15   16 ar
  29   15   29 1
  30   16   17 ar
  31   16   30 1
  32   17   31 1
  33   19   20 1
  34   20   21 1
  35   20   32 1
  36   20   33 1
  37   21   22 1
  38   21   34 1
  39   21   35 1

#	End of record

