#	Name: ASD09200030
#	Creating user name:	WinNT
#	Creation time:	15. 06. 2019 21:21

#	Modifying user name:	WinNT
#	Modification time:	15. 06. 2019 21:21

#	Program:	/corina/corina34_cracker 3.40 0067  02.08.2006

@<TRIPOS>MOLECULE
ASD09200030
  50   53    0    0    0
SMALL
NO_CHARGES


@<TRIPOS>ATOM
   1 N1            -0.0162     1.3436     0.0094 N.am    
   2 C2             0.0021    -0.0041     0.0020 C.2     
   3 S3             1.2790    -0.9038    -0.0145 S.o     
   4 C4             0.4647    -2.4793    -0.0155 C.2     
   5 C5            -0.8522    -2.1586    -0.0018 C.2     
   6 N6            -1.0695    -0.8037     0.0133 N.am    
   7 C7            -1.9343    -3.1577     0.0019 C.ar    
   8 C8            -1.6222    -4.5199    -0.0086 C.ar    
   9 C9            -2.6583    -5.4633    -0.0045 C.ar    
  10 C10           -4.0063    -5.0211     0.0102 C.ar    
  11 C11           -4.2887    -3.6380     0.0200 C.ar    
  12 C12           -3.2754    -2.7354     0.0218 C.ar    
  13 C13           -2.3802    -6.8432    -0.0153 C.ar    
  14 C14           -3.4202    -7.7485    -0.0114 C.ar    
  15 C15           -4.7449    -7.3096     0.0031 C.ar    
  16 C16           -5.0419    -5.9650     0.0143 C.ar    
  17 C17            1.2377     2.1093     0.0016 C.3     
  18 C18            1.1992     3.1065    -1.1607 C.3     
  19 C19           -0.0617     3.9665    -1.0481 C.3     
  20 C20           -1.3006     3.0725    -1.1375 C.3     
  21 C21           -1.2905     2.0749     0.0193 C.3     
  22 C22           -0.0593     4.7015     0.2938 C.3     
  23 N23           -0.0852     4.9462    -2.1424 N.3     
  24 O24           -3.1528    -9.0809    -0.0222 O.3     
  25 C25           -4.2734    -9.9676    -0.0174 C.3     
  26 H26            1.7147    -0.7876    -1.2816 H       
  27 H27            0.9123    -3.4622    -0.0252 H       
  28 H28           -1.9683    -0.4391     0.0241 H       
  29 H29           -0.5916    -4.8426    -0.0201 H       
  30 H30           -5.3136    -3.2974     0.0312 H       
  31 H31           -3.5019    -1.6795     0.0293 H       
  32 H32           -1.3578    -7.1909    -0.0269 H       
  33 H33           -5.5467    -8.0331     0.0056 H       
  34 H34           -6.0713    -5.6386     0.0258 H       
  35 H35            1.3422     2.6490     0.9428 H       
  36 H36            2.0801     1.4297    -0.1278 H       
  37 H37            2.0807     3.7463    -1.1204 H       
  38 H38            1.1861     2.5635    -2.1057 H       
  39 H39           -2.1983     3.6881    -1.0807 H       
  40 H40           -1.2902     2.5298    -2.0827 H       
  41 H41           -2.1167     1.3733    -0.0959 H       
  42 H42           -1.3914     2.6095     0.9638 H       
  43 H43            0.8224     5.3393     0.3571 H       
  44 H44           -0.9573     5.3141     0.3741 H       
  45 H45           -0.0412     3.9749     1.1060 H       
  46 H46           -0.9088     5.5268    -2.0904 H       
  47 H47            0.7533     5.5074    -2.1434 H       
  48 H48           -4.8690    -9.7957     0.8792 H       
  49 H49           -4.8854    -9.7845    -0.9007 H       
  50 H50           -3.9208   -10.9989    -0.0272 H       
@<TRIPOS>BOND
   1    1    2 am
   2    1   17 1
   3    1   21 1
   4    2    3 2
   5    2    6 am
   6    3    4 1
   7    3   26 1
   8    4    5 2
   9    4   27 1
  10    5    6 1
  11    5    7 1
  12    6   28 1
  13    7    8 ar
  14    7   12 ar
  15    8    9 ar
  16    8   29 1
  17    9   10 ar
  18    9   13 ar
  19   10   11 ar
  20   10   16 ar
  21   11   12 ar
  22   11   30 1
  23   12   31 1
  24   13   14 ar
  25   13   32 1
  26   14   15 ar
  27   14   24 1
  28   15   16 ar
  29   15   33 1
  30   16   34 1
  31   17   18 1
  32   17   35 1
  33   17   36 1
  34   18   19 1
  35   18   37 1
  36   18   38 1
  37   19   20 1
  38   19   22 1
  39   19   23 1
  40   20   21 1
  41   20   39 1
  42   20   40 1
  43   21   41 1
  44   21   42 1
  45   22   43 1
  46   22   44 1
  47   22   45 1
  48   23   46 1
  49   23   47 1
  50   24   25 1
  51   25   48 1
  52   25   49 1
  53   25   50 1

#	End of record

