#	Name: ASD03330366
#	Creating user name:	WinNT
#	Creation time:	15. 06. 2019 20:37

#	Modifying user name:	WinNT
#	Modification time:	15. 06. 2019 20:37

#	Program:	/corina/corina34_cracker 3.40 0067  02.08.2006

@<TRIPOS>MOLECULE
ASD03330366
  51   54    0    0    0
SMALL
NO_CHARGES


@<TRIPOS>ATOM
   1 C1            -0.1863     1.6490    -0.2649 C.3     
   2 N2            -0.2321     0.1801    -0.2676 N.3     
   3 C3             0.2794    -0.3668    -1.5374 C.3     
   4 C4             1.6078     0.2848    -1.8227 C.2     
   5 N5             2.0463     1.4138    -1.1946 N.pl3   
   6 C6             1.2698     2.1239    -0.1746 C.3     
   7 C7             2.5744    -0.0874    -2.6984 C.2     
   8 N8             3.5858     0.8052    -2.5976 N.2     
   9 C9             3.2745     1.7086    -1.6953 C.2     
  10 C10            4.1192     2.8546    -1.2928 C.ar    
  11 C11            5.2056     3.2350    -2.0811 C.ar    
  12 C12            2.5307    -1.2541    -3.5972 C.2     
  13 O13            1.5602    -1.9872    -3.5955 O.2     
  14 C14            3.5687    -2.6684    -5.2033 C.ar    
  15 N15            3.5663    -1.5089    -4.4213 N.am    
  16 C16           -1.5919    -0.3046     0.0046 C.3     
  17 C17            5.9896     4.3046    -1.7003 C.ar    
  18 C18            5.7003     4.9994    -0.5395 C.ar    
  19 C19            4.6244     4.6271     0.2466 C.ar    
  20 C20            3.8294     3.5629    -0.1263 C.ar    
  21 C21            2.3802    -3.1516    -5.7353 C.ar    
  22 C22           -2.5148     0.0905    -1.1500 C.3     
  23 C23           -3.9310    -0.4144    -0.8665 C.3     
  24 C24            4.7605    -3.3361    -5.4542 C.ar    
  25 C25            4.7594    -4.4809    -6.2268 C.ar    
  26 C26            3.5735    -4.9625    -6.7503 C.ar    
  27 C27            2.3869    -4.2937    -6.5118 C.ar    
  28 H28           -0.6344     2.0271    -1.1837 H       
  29 H29           -0.7445     2.0272     0.5915 H       
  30 H30            0.4096    -1.4454    -1.4482 H       
  31 H31           -0.4205    -0.1448    -2.3429 H       
  32 H32            1.3184     3.1976    -0.3566 H       
  33 H33            1.6693     1.8994     0.8143 H       
  34 H34            5.4326     2.6932    -2.9874 H       
  35 H35            4.3099    -0.8881    -4.4721 H       
  36 H36           -1.5777    -1.3901     0.1032 H       
  37 H37           -1.9575     0.1396     0.9303 H       
  38 H38            6.8310     4.5999    -2.3096 H       
  39 H39            6.3172     5.8357    -0.2455 H       
  40 H40            4.4038     5.1735     1.1517 H       
  41 H41            2.9898     3.2732     0.4882 H       
  42 H42            1.4518    -2.6349    -5.5418 H       
  43 H43           -2.5290     1.1759    -1.2487 H       
  44 H44           -2.1492    -0.3537    -2.0758 H       
  45 H45           -4.5885    -0.1329    -1.6890 H       
  46 H46           -3.9169    -1.4998    -0.7678 H       
  47 H47           -4.2966     0.0299     0.0593 H       
  48 H48            5.6870    -2.9603    -5.0460 H       
  49 H49            5.6858    -5.0004    -6.4226 H       
  50 H50            3.5755    -5.8577    -7.3544 H       
  51 H51            1.4623    -4.6726    -6.9217 H       
@<TRIPOS>BOND
   1    1    2 1
   2    1    6 1
   3    1   28 1
   4    1   29 1
   5    2    3 1
   6    2   16 1
   7    3    4 1
   8    3   30 1
   9    3   31 1
  10    4    5 1
  11    4    7 2
  12    5    6 1
  13    5    9 1
  14    6   32 1
  15    6   33 1
  16    7    8 1
  17    7   12 1
  18    8    9 2
  19    9   10 1
  20   10   11 ar
  21   10   20 ar
  22   11   17 ar
  23   11   34 1
  24   12   13 2
  25   12   15 am
  26   14   24 ar
  27   14   15 1
  28   14   21 ar
  29   15   35 1
  30   16   22 1
  31   16   36 1
  32   16   37 1
  33   17   18 ar
  34   17   38 1
  35   18   19 ar
  36   18   39 1
  37   19   20 ar
  38   19   40 1
  39   20   41 1
  40   21   27 ar
  41   21   42 1
  42   22   23 1
  43   22   43 1
  44   22   44 1
  45   23   45 1
  46   23   46 1
  47   23   47 1
  48   24   25 ar
  49   24   48 1
  50   25   26 ar
  51   25   49 1
  52   26   27 ar
  53   26   50 1
  54   27   51 1

#	End of record

