#	Name: ASD03240528
#	Creating user name:	WinNT
#	Creation time:	15. 06. 2019 20:35

#	Modifying user name:	WinNT
#	Modification time:	15. 06. 2019 20:35

#	Program:	/corina/corina34_cracker 3.40 0067  02.08.2006

@<TRIPOS>MOLECULE
ASD03240528
  58   64    0    0    0
SMALL
NO_CHARGES


@<TRIPOS>ATOM
   1 C1            -0.0848     1.6868     0.1293 C.ar    
   2 C2            -0.1538     0.3139     0.2479 C.ar    
   3 N3             0.9418    -0.4197     0.2991 N.ar    
   4 C4             2.1511     0.1217     0.2406 C.ar    
   5 C5             2.2950     1.5012     0.1065 C.ar    
   6 C6             1.1594     2.2992     0.0561 C.ar    
   7 N7             3.2683    -0.7034     0.3357 N.pl3   
   8 C8             4.1569    -0.5752     1.3999 C.ar    
   9 C9             4.8707     0.6126     1.5911 C.ar    
  10 C10            4.7099     1.7377     0.6440 C.2     
  11 N11            3.5592     2.0987     0.0033 N.pl3   
  12 C12            4.3366    -1.6322     2.2821 C.ar    
  13 C13            5.2074    -1.5039     3.3473 C.ar    
  14 C14            5.9060    -0.3252     3.5440 C.ar    
  15 C15            5.7426     0.7331     2.6730 C.ar    
  16 N16            5.6762     2.5585     0.2843 N.2     
  17 C17            5.2028     3.4615    -0.5900 C.2     
  18 C18            3.8567     3.1912    -0.7886 C.2     
  19 C19            2.9284     3.9241    -1.6696 C.ar    
  20 C20            2.7676     5.3050    -1.5268 C.ar    
  21 C21            2.2096     3.2420    -2.6551 C.ar    
  22 C22            1.3434     3.9340    -3.4752 C.ar    
  23 C23            1.1850     5.3005    -3.3241 C.ar    
  24 C24            1.8977     5.9836    -2.3542 C.ar    
  25 C25            5.9757     4.5469    -1.2254 C.2     
  26 C26            0.2364     6.0494    -4.2243 C.3     
  27 N27           -0.7627     5.1755    -4.8536 N.3     
  28 C28           -0.3663     7.3063    -3.5748 C.3     
  29 C29           -0.1896     7.9989    -4.9364 C.3     
  30 C30            0.9412     6.9918    -5.2143 C.3     
  31 N31            5.8275     4.9974    -2.5128 N.pl3   
  32 C32            6.7203     6.0074    -2.7255 C.2     
  33 C33            7.4282     6.1994    -1.5916 C.2     
  34 C34            6.9599     5.2837    -0.6352 C.2     
  35 H35           -0.9879     2.2777     0.0893 H       
  36 H36           -1.1191    -0.1675     0.3000 H       
  37 H37            1.2421     3.3719    -0.0382 H       
  38 H38            3.4292    -1.3744    -0.3460 H       
  39 H39            3.7951    -2.5552     2.1359 H       
  40 H40            5.3442    -2.3289     4.0307 H       
  41 H41            6.5809    -0.2331     4.3821 H       
  42 H42            6.2891     1.6516     2.8283 H       
  43 H43            3.3228     5.8393    -0.7700 H       
  44 H44            2.3325     2.1756    -2.7744 H       
  45 H45            0.7875     3.4083    -4.2375 H       
  46 H46            1.7687     7.0500    -2.2418 H       
  47 H47           -0.3231     4.3778    -5.2878 H       
  48 H48           -1.4606     4.8845    -4.1855 H       
  49 H49           -1.4082     7.1872    -3.2775 H       
  50 H50            0.2544     7.7303    -2.7855 H       
  51 H51           -1.0473     7.8841    -5.5993 H       
  52 H52            0.1525     9.0310    -4.8602 H       
  53 H53            1.9200     7.3294    -4.8733 H       
  54 H54            0.9536     6.6210    -6.2392 H       
  55 H55            5.1945     4.6550    -3.1631 H       
  56 H56            6.8407     6.5597    -3.6457 H       
  57 H57            8.2111     6.9287    -1.4453 H       
  58 H58            7.3180     5.1776     0.3782 H       
@<TRIPOS>BOND
   1    1    2 ar
   2    1    6 ar
   3    1   35 1
   4    2    3 ar
   5    2   36 1
   6    3    4 ar
   7    4    5 ar
   8    4    7 1
   9    5    6 ar
  10    5   11 1
  11    6   37 1
  12    7    8 1
  13    7   38 1
  14    8    9 ar
  15    8   12 ar
  16    9   10 1
  17    9   15 ar
  18   10   11 1
  19   10   16 2
  20   11   18 1
  21   12   13 ar
  22   12   39 1
  23   13   14 ar
  24   13   40 1
  25   14   15 ar
  26   14   41 1
  27   15   42 1
  28   16   17 1
  29   17   18 2
  30   17   25 1
  31   18   19 1
  32   19   20 ar
  33   19   21 ar
  34   20   24 ar
  35   20   43 1
  36   21   22 ar
  37   21   44 1
  38   22   23 ar
  39   22   45 1
  40   23   24 ar
  41   23   26 1
  42   24   46 1
  43   25   31 1
  44   25   34 2
  45   26   27 1
  46   26   28 1
  47   26   30 1
  48   27   47 1
  49   27   48 1
  50   28   29 1
  51   28   49 1
  52   28   50 1
  53   29   30 1
  54   29   51 1
  55   29   52 1
  56   30   53 1
  57   30   54 1
  58   31   32 1
  59   31   55 1
  60   32   33 2
  61   32   56 1
  62   33   34 1
  63   33   57 1
  64   34   58 1

#	End of record

