#	Name: ASD01915492
#	Creating user name:	WinNT
#	Creation time:	15. 06. 2019 20:05

#	Modifying user name:	WinNT
#	Modification time:	15. 06. 2019 20:05

#	Program:	/corina/corina34_cracker 3.40 0067  02.08.2006

@<TRIPOS>MOLECULE
ASD01915492
  36   38    0    0    0
SMALL
NO_CHARGES


@<TRIPOS>ATOM
   1 C1            -0.0167     1.3814     0.0096 C.ar    
   2 C2             0.0021    -0.0041     0.0020 C.ar    
   3 C3             1.1830     2.0786     0.0019 C.ar    
   4 C4             2.3601     1.3540    -0.0130 C.ar    
   5 C5             2.3053    -0.0396    -0.0189 C.ar    
   6 N6             1.1387    -0.6678    -0.0118 N.ar    
   7 C7             3.6969     2.0433    -0.0241 C.3     
   8 C8             4.7135     1.2208     0.7648 C.3     
   9 N9             4.7207    -0.1697     0.3185 N.am    
  10 C10            3.5807    -0.7974    -0.0320 C.2     
  11 O11            3.5972    -1.9689    -0.3543 O.2     
  12 C12           -1.3279     2.1241     0.0199 C.3     
  13 O13           -1.7360     2.3516     1.3704 O.3     
  14 C14           -2.9074     3.0146     1.5576 C.ar    
  15 C15           -3.3638     3.2696     2.8426 C.ar    
  16 C16           -4.5549     3.9438     3.0303 C.ar    
  17 C17           -5.2920     4.3643     1.9387 C.ar    
  18 C18           -4.8395     4.1110     0.6570 C.ar    
  19 C19           -3.6460     3.4426     0.4640 C.ar    
  20 C20            5.9911    -0.8961     0.2506 C.3     
  21 H21           -0.9309    -0.5481     0.0078 H       
  22 H22            1.1968     3.1585     0.0071 H       
  23 H23            4.0396     2.1519    -1.0531 H       
  24 H24            3.5993     3.0296     0.4294 H       
  25 H25            5.7065     1.6474     0.6230 H       
  26 H26            4.4577     1.2556     1.8237 H       
  27 H27           -1.2078     3.0803    -0.4893 H       
  28 H28           -2.0852     1.5316    -0.4936 H       
  29 H29           -2.7885     2.9410     3.6956 H       
  30 H30           -4.9108     4.1422     4.0305 H       
  31 H31           -6.2229     4.8912     2.0875 H       
  32 H32           -5.4175     4.4398    -0.1941 H       
  33 H33           -3.2930     3.2450    -0.5374 H       
  34 H34            6.1795    -1.3885     1.2046 H       
  35 H35            5.9401    -1.6442    -0.5406 H       
  36 H36            6.7989    -0.1961     0.0372 H       
@<TRIPOS>BOND
   1    1    2 ar
   2    1    3 ar
   3    1   12 1
   4    2    6 ar
   5    2   21 1
   6    3    4 ar
   7    3   22 1
   8    4    5 ar
   9    4    7 1
  10    5    6 ar
  11    5   10 1
  12    7    8 1
  13    7   23 1
  14    7   24 1
  15    8    9 1
  16    8   25 1
  17    8   26 1
  18    9   10 am
  19    9   20 1
  20   10   11 2
  21   12   13 1
  22   12   27 1
  23   12   28 1
  24   13   14 1
  25   14   15 ar
  26   14   19 ar
  27   15   16 ar
  28   15   29 1
  29   16   17 ar
  30   16   30 1
  31   17   18 ar
  32   17   31 1
  33   18   19 ar
  34   18   32 1
  35   19   33 1
  36   20   34 1
  37   20   35 1
  38   20   36 1

#	End of record

