#	Name: ASD01152191
#	Creating user name:	WinNT
#	Creation time:	15. 06. 2019 19:05

#	Modifying user name:	WinNT
#	Modification time:	15. 06. 2019 19:05

#	Program:	/corina/corina34_cracker 3.40 0067  02.08.2006

@<TRIPOS>MOLECULE
ASD01152191
  24   25    0    0    0
SMALL
NO_CHARGES


@<TRIPOS>ATOM
   1 C1             0.0261     1.3786    -0.3194 C.ar    
   2 C2             0.0450    -0.0020    -0.3260 C.ar    
   3 C3             1.2086    -0.6808    -0.0126 C.ar    
   4 C4             2.3567     0.0201     0.3077 C.ar    
   5 C5             2.3448     1.4012     0.3157 C.ar    
   6 C6             1.1779     2.0860     0.0020 C.ar    
   7 N7             1.1625     3.4850     0.0087 N.am    
   8 N8             0.6694     4.1006    -1.0049 N.2     
   9 C9             0.6303     5.4147    -1.0492 C.2     
  10 C10            1.1670     6.1775     0.0950 C.2     
  11 N11            1.6743     5.4760     1.1358 N.am    
  12 O12            1.1543     7.3939     0.1022 O.2     
  13 C13            1.6587     4.1292     1.0766 C.2     
  14 O14            2.1108     3.4863     2.0038 O.2     
  15 N15            3.5996    -0.7105     0.6429 N.pl3   
  16 O16            3.6107    -1.9284     0.6364 O.2     
  17 O17            4.6113    -0.0938     0.9251 O.2     
  18 C18            0.0787     6.0914    -2.1843 C.1     
  19 N19           -0.3588     6.6283    -3.0848 N.1     
  20 H20           -0.8817     1.9081    -0.5681 H       
  21 H21           -0.8500    -0.5525    -0.5757 H       
  22 H22            1.2205    -1.7607    -0.0178 H       
  23 H23            3.2418     1.9481     0.5664 H       
  24 H24            2.0383     5.9331     1.9101 H       
@<TRIPOS>BOND
   1    1    2 ar
   2    1    6 ar
   3    1   20 1
   4    2    3 ar
   5    2   21 1
   6    3    4 ar
   7    3   22 1
   8    4    5 ar
   9    4   15 1
  10    5    6 ar
  11    5   23 1
  12    6    7 1
  13    7    8 1
  14    7   13 am
  15    8    9 2
  16    9   10 1
  17    9   18 1
  18   10   11 am
  19   10   12 2
  20   11   13 am
  21   11   24 1
  22   13   14 2
  23   15   16 2
  24   15   17 2
  25   18   19 3

#	End of record

