#	Name: ASD01810195
#	Creating user name:	WinNT
#	Creation time:	15. 06. 2019 19:24

#	Modifying user name:	WinNT
#	Modification time:	15. 06. 2019 19:24

#	Program:	/corina/corina34_cracker 3.40 0067  02.08.2006

@<TRIPOS>MOLECULE
ASD01810195
  44   47    0    0    0
SMALL
NO_CHARGES


@<TRIPOS>ATOM
   1 C1            -0.0167     1.3832     0.0096 C.ar    
   2 C2             0.0021    -0.0041     0.0020 C.ar    
   3 C3             1.1959    -0.6919    -0.0130 C.ar    
   4 C4             2.4007     0.0059    -0.0207 C.ar    
   5 C5             2.3789     1.4111    -0.0130 C.ar    
   6 C6             1.1632     2.0941     0.0022 C.ar    
   7 N7             3.6013    -0.6705    -0.0353 N.pl3   
   8 C8             4.7860    -0.0462    -0.0428 C.2     
   9 C9             4.8924     1.3300    -0.0360 C.2     
  10 C10            3.6622     2.1381    -0.0214 C.2     
  11 O11            3.7023     3.3559    -0.0152 O.2     
  12 C12            6.2117     1.9776    -0.0437 C.2     
  13 O13            6.3025     3.3226    -0.0369 O.3     
  14 O14            7.2212     1.3003    -0.0561 O.2     
  15 C15            3.5807    -2.1353    -0.0424 C.3     
  16 C16            3.5604    -2.6305    -1.4656 C.ar    
  17 C17            4.7350    -2.6768    -2.1965 C.ar    
  18 C18            4.7213    -3.1301    -3.5016 C.ar    
  19 C19            3.5228    -3.5405    -4.0808 C.ar    
  20 C20            2.3436    -3.4914    -3.3398 C.ar    
  21 C21            2.3691    -3.0424    -2.0351 C.ar    
  22 C22            3.5017    -4.0278    -5.4823 C.ar    
  23 C23            2.3029    -4.4383    -6.0619 C.ar    
  24 C24            2.2891    -4.8907    -7.3657 C.ar    
  25 C25            3.4624    -4.9374    -8.0968 C.ar    
  26 C26            4.6553    -4.5315    -7.5263 C.ar    
  27 C27            4.6796    -4.0711    -6.2254 C.ar    
  28 Cl28           6.2272    -2.1643    -1.4725 Cl      
  29 H29           -0.9606     1.9081     0.0170 H       
  30 H30           -0.9293    -0.5508     0.0083 H       
  31 H31            1.1970    -1.7719    -0.0185 H       
  32 H32            1.1468     3.1740     0.0078 H       
  33 H33            5.6885    -0.6393    -0.0542 H       
  34 H34            7.1917     3.7026    -0.0424 H       
  35 H35            4.4703    -2.5136     0.4612 H       
  36 H36            2.6906    -2.4887     0.4779 H       
  37 H37            5.6379    -3.1657    -4.0716 H       
  38 H38            1.4118    -3.8082    -3.7846 H       
  39 H39            1.4555    -3.0045    -1.4603 H       
  40 H40            1.3864    -4.4029    -5.4917 H       
  41 H41            1.3605    -5.2092    -7.8159 H       
  42 H42            3.4471    -5.2924    -9.1166 H       
  43 H43            5.5686    -4.5703    -8.1015 H       
  44 H44            5.6115    -3.7541    -5.7810 H       
@<TRIPOS>BOND
   1    1    2 ar
   2    1    6 ar
   3    1   29 1
   4    2    3 ar
   5    2   30 1
   6    3    4 ar
   7    3   31 1
   8    4    5 ar
   9    4    7 1
  10    5    6 ar
  11    5   10 1
  12    6   32 1
  13    7    8 1
  14    7   15 1
  15    8    9 2
  16    8   33 1
  17    9   10 1
  18    9   12 1
  19   10   11 2
  20   12   13 1
  21   12   14 2
  22   13   34 1
  23   15   16 1
  24   15   35 1
  25   15   36 1
  26   16   17 ar
  27   16   21 ar
  28   17   18 ar
  29   17   28 1
  30   18   19 ar
  31   18   37 1
  32   19   20 ar
  33   19   22 1
  34   20   21 ar
  35   20   38 1
  36   21   39 1
  37   22   23 ar
  38   22   27 ar
  39   23   24 ar
  40   23   40 1
  41   24   25 ar
  42   24   41 1
  43   25   26 ar
  44   25   42 1
  45   26   27 ar
  46   26   43 1
  47   27   44 1

#	End of record

