#	Name: ASD01140034
#	Creating user name:	WinNT
#	Creation time:	15. 06. 2019 18:59

#	Modifying user name:	WinNT
#	Modification time:	15. 06. 2019 18:59

#	Program:	/corina/corina34_cracker 3.40 0067  02.08.2006

@<TRIPOS>MOLECULE
ASD01140034
  34   35    0    0    0
SMALL
NO_CHARGES


@<TRIPOS>ATOM
   1 C1            -0.0162     1.3405     0.0094 C.2     
   2 N2             0.0021    -0.0041     0.0020 N.pl3   
   3 C3             1.3286    -0.3912    -0.0127 C.2     
   4 C4             2.0646     0.7614    -0.0136 C.2     
   5 N5             1.2140     1.7873     0.0001 N.2     
   6 C6             1.8440    -1.7634    -0.0250 C.2     
   7 O7             3.0436    -1.9623    -0.0375 O.2     
   8 O8             0.9876    -2.8054    -0.0224 O.3     
   9 C9            -1.1640    -0.8909     0.0091 C.3     
  10 C10           -1.9941    -0.6319     1.2680 C.3     
  11 C11           -2.0060    -0.6234    -1.2117 C.ar    
  12 C12           -2.2409    -1.6347    -2.1245 C.ar    
  13 C13           -3.0132    -1.3893    -3.2444 C.ar    
  14 C14           -3.5510    -0.1327    -3.4513 C.ar    
  15 C15           -3.3169     0.8783    -2.5381 C.ar    
  16 C16           -2.5481     0.6317    -1.4160 C.ar    
  17 C17            1.5685    -4.1361    -0.0351 C.3     
  18 C18            0.4506    -5.1807    -0.0301 C.3     
  19 H19           -0.9048     1.9542     0.0171 H       
  20 H20            3.1425     0.8284    -0.0232 H       
  21 H21           -0.8311    -1.9288     0.0006 H       
  22 H22           -2.8617    -1.2917     1.2732 H       
  23 H23           -1.3851    -0.8254     2.1510 H       
  24 H24           -2.3270     0.4060     1.2765 H       
  25 H25           -1.8207    -2.6164    -1.9628 H       
  26 H26           -3.1962    -2.1791    -3.9578 H       
  27 H27           -4.1539     0.0592    -4.3266 H       
  28 H28           -3.7368     1.8601    -2.6999 H       
  29 H29           -2.3682     1.4206    -0.7006 H       
  30 H30            2.1763    -4.2587    -0.9316 H       
  31 H31            2.1933    -4.2683     0.8482 H       
  32 H32           -0.1571    -5.0581     0.8664 H       
  33 H33           -0.1741    -5.0485    -0.9134 H       
  34 H34            0.8867    -6.1796    -0.0396 H       
@<TRIPOS>BOND
   1    1    2 1
   2    1    5 2
   3    1   19 1
   4    2    3 1
   5    2    9 1
   6    3    4 2
   7    3    6 1
   8    4    5 1
   9    4   20 1
  10    6    7 2
  11    6    8 1
  12    8   17 1
  13    9   10 1
  14    9   11 1
  15    9   21 1
  16   10   22 1
  17   10   23 1
  18   10   24 1
  19   11   12 ar
  20   11   16 ar
  21   12   13 ar
  22   12   25 1
  23   13   14 ar
  24   13   26 1
  25   14   15 ar
  26   14   27 1
  27   15   16 ar
  28   15   28 1
  29   16   29 1
  30   17   18 1
  31   17   30 1
  32   17   31 1
  33   18   32 1
  34   18   33 1
  35   18   34 1

#	End of record

