#	Name: ASD01882628
#	Creating user name:	WinNT
#	Creation time:	15. 06. 2019 19:44

#	Modifying user name:	WinNT
#	Modification time:	15. 06. 2019 19:44

#	Program:	/corina/corina34_cracker 3.40 0067  02.08.2006

@<TRIPOS>MOLECULE
ASD01882628
  44   47    0    0    0
SMALL
NO_CHARGES


@<TRIPOS>ATOM
   1 C1             0.7325     1.4200     1.0811 C.2     
   2 C2             0.7681     0.0147     1.0979 C.2     
   3 C3             1.2066    -0.6546    -0.0130 C.2     
   4 C4             1.6135     0.0753    -1.1506 C.2     
   5 C5             1.5712     1.4222    -1.1448 C.2     
   6 N6             1.1358     2.0991    -0.0428 N.pl3   
   7 N7             0.5215     3.5067     1.4678 N.2     
   8 N8             0.3653     2.3319     1.9687 N.2     
   9 C9             0.9860     3.4230     0.2489 C.2     
  10 C10            1.2967     4.5782    -0.6677 C.3     
  11 C11            0.0527     4.9285    -1.4865 C.3     
  12 F12           -0.9887     5.2853    -0.6231 F       
  13 F13            0.3412     6.0009    -2.3374 F       
  14 F14           -0.3320     3.8196    -2.2478 F       
  15 N15            1.2514    -2.0467    -0.0204 N.pl3   
  16 C16            2.5331    -2.7538    -0.1467 C.3     
  17 C17            2.4377    -3.7432    -1.3123 C.3     
  18 C18            1.2317    -4.6611    -1.0996 C.3     
  19 C19           -0.0494    -3.8245    -1.0701 C.3     
  20 C20            0.0184    -2.8360     0.1039 C.3     
  21 C21            1.1545    -5.6580    -2.2271 C.ar    
  22 C22            0.5186    -5.3102    -3.4041 C.ar    
  23 C23            0.4535    -6.2344    -4.4353 C.ar    
  24 C24            1.0330    -7.4795    -4.2433 C.ar    
  25 C25            1.6517    -7.7557    -3.0390 C.ar    
  26 N26            1.6990    -6.8500    -2.0815 N.ar    
  27 Cl27           0.2630    -0.8607     2.5093 Cl      
  28 H28            1.9606    -0.4479    -2.0294 H       
  29 H29            1.8851     1.9710    -2.0203 H       
  30 H30            1.5964     5.4422    -0.0745 H       
  31 H31            2.1081     4.3002    -1.3404 H       
  32 H32            3.3292    -2.0352    -0.3416 H       
  33 H33            2.7442    -3.2950     0.7756 H       
  34 H34            2.3169    -3.1945    -2.2463 H       
  35 H35            3.3473    -4.3421    -1.3566 H       
  36 H36            1.3412    -5.1911    -0.1534 H       
  37 H37           -0.1467    -3.2750    -2.0064 H       
  38 H38           -0.9099    -4.4812    -0.9419 H       
  39 H39            0.0286    -3.3837     1.0463 H       
  40 H40           -0.8453    -2.1717     0.0744 H       
  41 H41            0.0778    -4.3309    -3.5188 H       
  42 H42           -0.0372    -5.9906    -5.3660 H       
  43 H43            1.0008    -8.2240    -5.0250 H       
  44 H44            2.1054    -8.7231    -2.8816 H       
@<TRIPOS>BOND
   1    1    2 1
   2    1    6 1
   3    1    8 2
   4    2    3 2
   5    2   27 1
   6    3    4 1
   7    3   15 1
   8    4    5 2
   9    4   28 1
  10    5    6 1
  11    5   29 1
  12    6    9 1
  13    7    8 1
  14    7    9 2
  15    9   10 1
  16   10   11 1
  17   10   30 1
  18   10   31 1
  19   11   12 1
  20   11   13 1
  21   11   14 1
  22   15   16 1
  23   15   20 1
  24   16   17 1
  25   16   32 1
  26   16   33 1
  27   17   18 1
  28   17   34 1
  29   17   35 1
  30   18   19 1
  31   18   21 1
  32   18   36 1
  33   19   20 1
  34   19   37 1
  35   19   38 1
  36   20   39 1
  37   20   40 1
  38   21   22 ar
  39   21   26 ar
  40   22   23 ar
  41   22   41 1
  42   23   24 ar
  43   23   42 1
  44   24   25 ar
  45   24   43 1
  46   25   26 ar
  47   25   44 1

#	End of record

