#	Name: ASD01882676
#	Creating user name:	WinNT
#	Creation time:	15. 06. 2019 19:45

#	Modifying user name:	WinNT
#	Modification time:	15. 06. 2019 19:45

#	Program:	/corina/corina34_cracker 3.40 0067  02.08.2006

@<TRIPOS>MOLECULE
ASD01882676
  53   57    0    0    0
SMALL
NO_CHARGES


@<TRIPOS>ATOM
   1 C1             0.6258     1.3716    -1.0754 C.2     
   2 C2             0.6019    -0.0315    -1.0024 C.2     
   3 C3             1.1510    -0.6520     0.0867 C.2     
   4 C4             1.7295     0.1255     1.1137 C.2     
   5 C5             1.7414     1.4697     1.0231 C.2     
   6 N6             1.1965     2.0980    -0.0586 N.pl3   
   7 N7             0.4564     3.4382    -1.5741 N.2     
   8 N8             0.1947     2.2436    -1.9740 N.2     
   9 C9             1.0647     3.4073    -0.4177 C.2     
  10 C10           -0.0209    -0.8427    -2.1093 C.3     
  11 F11           -1.3552    -1.1181    -1.7915 F       
  12 F12            0.0339    -0.1191    -3.3053 F       
  13 F13            0.6805    -2.0440    -2.2585 F       
  14 N14            1.1390    -2.0403     0.1817 N.pl3   
  15 C15            2.3919    -2.8101     0.1492 C.3     
  16 C16            2.4096    -3.7620     1.3499 C.3     
  17 N17            1.1834    -4.5709     1.3476 N.3     
  18 C18           -0.0099    -3.7301     1.5114 C.3     
  19 C19           -0.1264    -2.7764     0.3235 C.3     
  20 C20            1.2355    -5.5550     2.3229 C.ar    
  21 N21            0.2090    -6.3799     2.4625 N.ar    
  22 C22            0.2244    -7.3309     3.3821 C.ar    
  23 C23            1.3365    -7.4570     4.2067 C.ar    
  24 C24            2.3950    -6.5731     4.0309 C.ar    
  25 N25            2.3128    -5.6494     3.0873 N.ar    
  26 O26            1.3877    -8.4225     5.1635 O.3     
  27 C27            2.5691    -8.4792     5.9654 C.3     
  28 C28            1.5361     4.6002     0.3734 C.3     
  29 C29            2.9697     4.9474    -0.0329 C.3     
  30 C30            3.5911     6.2065     0.5750 C.3     
  31 C31            4.0567     4.8241     1.0367 C.3     
  32 H32            2.1639    -0.3593     1.9755 H       
  33 H33            2.1859     2.0553     1.8142 H       
  34 H34            2.4442    -3.3855    -0.7751 H       
  35 H35            3.2413    -2.1297     0.2088 H       
  36 H36            3.2779    -4.4175     1.2816 H       
  37 H37            2.4619    -3.1834     2.2721 H       
  38 H38           -0.8965    -4.3623     1.5603 H       
  39 H39            0.0761    -3.1518     2.4314 H       
  40 H40           -0.9411    -2.0737     0.4982 H       
  41 H41           -0.3208    -3.3485    -0.5837 H       
  42 H42           -0.6161    -8.0002     3.4911 H       
  43 H43            3.2746    -6.6421     4.6537 H       
  44 H44            3.4342    -8.6545     5.3260 H       
  45 H45            2.6942    -7.5349     6.4953 H       
  46 H46            2.4799    -9.2915     6.6868 H       
  47 H47            0.8851     5.4507     0.1711 H       
  48 H48            1.5068     4.3652     1.4374 H       
  49 H49            3.2415     4.6968    -1.0583 H       
  50 H50            4.2719     6.7840    -0.0503 H       
  51 H51            2.9785     6.7875     1.2644 H       
  52 H52            3.7505     4.4957     2.0299 H       
  53 H53            5.0439     4.4922     0.7152 H       
@<TRIPOS>BOND
   1    1    2 1
   2    1    6 1
   3    1    8 2
   4    2    3 2
   5    2   10 1
   6    3    4 1
   7    3   14 1
   8    4    5 2
   9    4   32 1
  10    5    6 1
  11    5   33 1
  12    6    9 1
  13    7    8 1
  14    7    9 2
  15    9   28 1
  16   10   11 1
  17   10   12 1
  18   10   13 1
  19   14   15 1
  20   14   19 1
  21   15   16 1
  22   15   34 1
  23   15   35 1
  24   16   17 1
  25   16   36 1
  26   16   37 1
  27   17   18 1
  28   17   20 1
  29   18   19 1
  30   18   38 1
  31   18   39 1
  32   19   40 1
  33   19   41 1
  34   20   21 ar
  35   20   25 ar
  36   21   22 ar
  37   22   23 ar
  38   22   42 1
  39   23   24 ar
  40   23   26 1
  41   24   25 ar
  42   24   43 1
  43   26   27 1
  44   27   44 1
  45   27   45 1
  46   27   46 1
  47   28   29 1
  48   28   47 1
  49   28   48 1
  50   29   30 1
  51   29   31 1
  52   29   49 1
  53   30   31 1
  54   30   50 1
  55   30   51 1
  56   31   52 1
  57   31   53 1

#	End of record

