#	Name: ASD03090994
#	Creating user name:	WinNT
#	Creation time:	15. 06. 2019 20:29

#	Modifying user name:	WinNT
#	Modification time:	15. 06. 2019 20:29

#	Program:	/corina/corina34_cracker 3.40 0067  02.08.2006

@<TRIPOS>MOLECULE
ASD03090994
  46   49    0    0    0
SMALL
NO_CHARGES


@<TRIPOS>ATOM
   1 N1            -0.4212     1.0012    -1.9337 N.am    
   2 C2            -0.3001    -0.2576    -1.4676 C.2     
   3 O3             0.7608    -0.8478    -1.5749 O.2     
   4 N4            -1.3435    -0.8587    -0.8875 N.2     
   5 C5             0.7224     1.6601    -2.5695 C.3     
   6 C6            -1.6982     1.7084    -1.8100 C.3     
   7 S7             0.1809    -3.0940    -0.4841 S.3     
   8 C8            -1.2240    -2.1009    -0.4275 C.2     
   9 N9            -2.1842    -2.8402     0.1810 N.pl3   
  10 C10           -1.8363    -4.1039     0.5760 C.2     
  11 C11           -0.5742    -4.4813     0.3183 C.2     
  12 C12           -2.7969    -5.0026     1.2487 C.ar    
  13 C13           -3.1348    -6.2222     0.6588 C.ar    
  14 C14           -4.0352    -7.0519     1.3010 C.ar    
  15 C15           -4.5710    -6.6378     2.5136 C.ar    
  16 C16           -4.1931    -5.4178     3.0415 C.ar    
  17 N17           -3.3286    -4.6466     2.4130 N.ar    
  18 C18            0.0656    -5.8066     0.6429 C.3     
  19 O19            0.3934    -6.4871    -0.5702 O.3     
  20 O20           -7.3314    -0.9432     0.7970 O.3     
  21 C21           -7.9470    -1.7507    -0.2239 C.3     
  22 O22           -6.8613    -2.0580    -1.1182 O.3     
  23 C23           -5.7333    -2.0161    -0.3505 C.ar    
  24 C24           -6.0219    -1.3305     0.8277 C.ar    
  25 C25           -4.4600    -2.5158    -0.5638 C.ar    
  26 C26           -3.4734    -2.3336     0.3960 C.ar    
  27 C27           -3.7639    -1.6502     1.5688 C.ar    
  28 C28           -5.0346    -1.1505     1.7825 C.ar    
  29 F29           -8.4757    -2.9223     0.3284 F       
  30 F30           -8.9422    -1.0269    -0.8894 F       
  31 H31            1.5759     0.9820    -2.5742 H       
  32 H32            0.4645     1.9267    -3.5944 H       
  33 H33            0.9779     2.5617    -2.0128 H       
  34 H34           -1.7233     2.2506    -0.8648 H       
  35 H35           -1.8052     2.4122    -2.6355 H       
  36 H36           -2.5163     0.9887    -1.8379 H       
  37 H37           -2.6993    -6.5131    -0.2857 H       
  38 H38           -4.3160    -8.0011     0.8690 H       
  39 H39           -5.2771    -7.2635     3.0392 H       
  40 H40           -4.6088    -5.0937     3.9841 H       
  41 H41            0.9736    -5.6395     1.2224 H       
  42 H42           -0.6294    -6.4132     1.2234 H       
  43 H43            0.8098    -7.3496    -0.4372 H       
  44 H44           -4.2344    -3.0478    -1.4762 H       
  45 H45           -2.9962    -1.5090     2.3152 H       
  46 H46           -5.2583    -0.6191     2.6957 H       
@<TRIPOS>BOND
   1    1    2 am
   2    1    5 1
   3    1    6 1
   4    2    3 2
   5    2    4 1
   6    4    8 2
   7    5   31 1
   8    5   32 1
   9    5   33 1
  10    6   34 1
  11    6   35 1
  12    6   36 1
  13    7    8 1
  14    7   11 1
  15    8    9 1
  16    9   10 1
  17    9   26 1
  18   10   11 2
  19   10   12 1
  20   11   18 1
  21   12   13 ar
  22   12   17 ar
  23   13   14 ar
  24   13   37 1
  25   14   15 ar
  26   14   38 1
  27   15   16 ar
  28   15   39 1
  29   16   17 ar
  30   16   40 1
  31   18   19 1
  32   18   41 1
  33   18   42 1
  34   19   43 1
  35   20   21 1
  36   20   24 1
  37   21   22 1
  38   21   29 1
  39   21   30 1
  40   22   23 1
  41   23   24 ar
  42   23   25 ar
  43   24   28 ar
  44   25   26 ar
  45   25   44 1
  46   26   27 ar
  47   27   28 ar
  48   27   45 1
  49   28   46 1

#	End of record

