#	Name: ASD01911338
#	Creating user name:	WinNT
#	Creation time:	15. 06. 2019 19:57

#	Modifying user name:	WinNT
#	Modification time:	15. 06. 2019 19:57

#	Program:	/corina/corina34_cracker 3.40 0067  02.08.2006

@<TRIPOS>MOLECULE
ASD01911338
  39   41    0    0    0
SMALL
NO_CHARGES


@<TRIPOS>ATOM
   1 C1            -0.0167     1.3792     0.0096 C.ar    
   2 C2             0.0021    -0.0041     0.0020 C.ar    
   3 N3             1.1407    -0.6708    -0.0124 N.ar    
   4 C4             2.3057    -0.0578    -0.0203 C.ar    
   5 C5             2.3736     1.3384    -0.0130 C.ar    
   6 C6             1.1801     2.0732     0.0019 C.ar    
   7 C7             3.6403     2.0063    -0.0205 C.1     
   8 C8             4.6787     2.5538    -0.0267 C.1     
   9 C9             5.9454     3.2217    -0.0343 C.ar    
  10 N10            5.9873     4.5523    -0.0271 N.ar    
  11 C11            7.1283     5.2055    -0.0336 C.ar    
  12 C12            8.3430     4.5152    -0.0484 C.ar    
  13 C13            8.3320     3.1123    -0.0563 C.ar    
  14 C14            7.1243     2.4678    -0.0434 C.ar    
  15 C15            9.6217     5.2526    -0.0562 C.2     
  16 N16            9.6224     6.6004    -0.0490 N.am    
  17 O17           10.6743     4.6442    -0.0691 O.2     
  18 C18           10.8914     7.3323    -0.0567 C.3     
  19 C19           10.6880     8.7338    -0.6584 C.3     
  20 C20           11.0698     9.7454     0.4420 C.3     
  21 C21           12.0238     8.9542     1.3709 C.3     
  22 C22           11.3898     7.5411     1.3882 C.3     
  23 H23           -0.9561     1.9119     0.0170 H       
  24 H24           -0.9312    -0.5476     0.0084 H       
  25 H25            3.2164    -0.6383    -0.0321 H       
  26 H26            1.1943     3.1531     0.0076 H       
  27 H27            7.1266     6.2855    -0.0278 H       
  28 H28            9.2559     2.5532    -0.0678 H       
  29 H29            7.0817     1.3887    -0.0486 H       
  30 H30            8.7826     7.0858    -0.0387 H       
  31 H31           11.6355     6.7828    -0.6334 H       
  32 H32           11.3339     8.8649    -1.5265 H       
  33 H33            9.6450     8.8695    -0.9446 H       
  34 H34           11.5837    10.6038     0.0093 H       
  35 H35           10.1835    10.0663     0.9894 H       
  36 H36           13.0301     8.9210     0.9533 H       
  37 H37           12.0338     9.3853     2.3719 H       
  38 H38           10.5552     7.5059     2.0885 H       
  39 H39           12.1372     6.7908     1.6461 H       
@<TRIPOS>BOND
   1    1    2 ar
   2    1    6 ar
   3    1   23 1
   4    2    3 ar
   5    2   24 1
   6    3    4 ar
   7    4    5 ar
   8    4   25 1
   9    5    6 ar
  10    5    7 1
  11    6   26 1
  12    7    8 3
  13    8    9 1
  14    9   10 ar
  15    9   14 ar
  16   10   11 ar
  17   11   12 ar
  18   11   27 1
  19   12   13 ar
  20   12   15 1
  21   13   14 ar
  22   13   28 1
  23   14   29 1
  24   15   16 am
  25   15   17 2
  26   16   18 1
  27   16   30 1
  28   18   19 1
  29   18   22 1
  30   18   31 1
  31   19   20 1
  32   19   32 1
  33   19   33 1
  34   20   21 1
  35   20   34 1
  36   20   35 1
  37   21   22 1
  38   21   36 1
  39   21   37 1
  40   22   38 1
  41   22   39 1

#	End of record

