#	Name: ASD05490078
#	Creating user name:	WinNT
#	Creation time:	15. 06. 2019 21:01

#	Modifying user name:	WinNT
#	Modification time:	15. 06. 2019 21:01

#	Program:	/corina/corina34_cracker 3.40 0067  02.08.2006

@<TRIPOS>MOLECULE
ASD05490078
  67   71    0    0    0
SMALL
NO_CHARGES


@<TRIPOS>ATOM
   1 N1            -0.0178     1.4608     0.0101 N.pl3   
   2 O2             4.5582     2.8949    -0.0261 O.3     
   3 N3             2.7941     4.3826    -0.0015 N.ar    
   4 C4             1.4952     4.6638     0.0118 C.ar    
   5 C5             3.2233     3.1292    -0.0123 C.ar    
   6 N6             2.3949     2.0994    -0.0093 N.ar    
   7 C7             1.0795     2.2895     0.0040 C.ar    
   8 C8             0.5781     3.6006     0.0150 C.ar    
   9 N9             1.0558     5.9772     0.0226 N.pl3   
  10 C10           -1.1306     2.2546     0.0190 C.2     
  11 N11           -0.7773     3.5129     0.0270 N.2     
  12 C12            5.4173     4.0368    -0.0280 C.3     
  13 C13            6.8766     3.5771    -0.0442 C.3     
  14 O14            7.1483     2.8975    -1.2715 O.3     
  15 C15            8.4917     2.4246    -1.3889 C.3     
  16 C16            0.0021    -0.0041     0.0020 C.3     
  17 C17            0.0225    -0.5140     1.4200 C.ar    
  18 C18           -1.1675    -0.7634     2.0797 C.ar    
  19 C19           -1.1548    -1.2301     3.3785 C.ar    
  20 C20            0.0599    -1.4503     4.0251 C.ar    
  21 C21            1.2557    -1.1977     3.3555 C.ar    
  22 C22            1.2311    -0.7362     2.0550 C.ar    
  23 C23            0.0799    -1.9513     5.4212 C.ar    
  24 C24            1.2991    -2.1686     6.0599 C.ar    
  25 N25           -1.0630    -2.1836     6.0532 N.ar    
  26 C26           -1.0886    -2.6288     7.2931 C.ar    
  27 C27            0.0837    -2.8713     7.9845 C.ar    
  28 C28            1.3019    -2.6363     7.3625 C.ar    
  29 C29            0.0392    -3.3800     9.4024 C.3     
  30 N30            0.0307    -4.8489     9.3957 N.3     
  31 C31            0.2269    -5.3847    10.7552 C.3     
  32 C32           -0.9780    -6.2977    11.0651 C.3     
  33 C33           -1.5010    -6.6770     9.6547 C.3     
  34 C34           -1.2473    -5.3689     8.8646 C.3     
  35 O35           -2.4073     1.8048     0.0270 O.3     
  36 C36           -3.4422     2.7900     0.0462 C.3     
  37 H37            1.6985     6.7037     0.0206 H       
  38 H38            0.1053     6.1706     0.0323 H       
  39 H39            5.2168     4.6408    -0.9129 H       
  40 H40            5.2335     4.6312     0.8670 H       
  41 H41            7.5315     4.4439     0.0439 H       
  42 H42            7.0539     2.9012     0.7924 H       
  43 H43            8.7025     1.7248    -0.5803 H       
  44 H44            8.6170     1.9208    -2.3473 H       
  45 H45            9.1802     3.2675    -1.3287 H       
  46 H46           -0.8878    -0.3767    -0.5053 H       
  47 H47            0.8920    -0.3525    -0.5222 H       
  48 H48           -2.1083    -0.5924     1.5776 H       
  49 H49           -2.0845    -1.4238     3.8928 H       
  50 H50            2.1998    -1.3663     3.8520 H       
  51 H51            2.1571    -0.5400     1.5351 H       
  52 H52            2.2289    -1.9753     5.5455 H       
  53 H53           -2.0383    -2.8062     7.7759 H       
  54 H54            2.2312    -2.8181     7.8818 H       
  55 H55            0.9159    -3.0242     9.9437 H       
  56 H56           -0.8633    -3.0137     9.8917 H       
  57 H57            1.1502    -5.9626    10.7964 H       
  58 H58            0.2667    -4.5664    11.4741 H       
  59 H59           -0.6583    -7.1862    11.6095 H       
  60 H60           -1.7392    -5.7544    11.6251 H       
  61 H61           -0.9280    -7.5039     9.2351 H       
  62 H62           -2.5641    -6.9158     9.6836 H       
  63 H63           -2.0513    -4.6552     9.0442 H       
  64 H64           -1.1575    -5.5805     7.7991 H       
  65 H65           -3.3425     3.4042     0.9411 H       
  66 H66           -3.3595     3.4211    -0.8387 H       
  67 H67           -4.4139     2.2962     0.0508 H       
@<TRIPOS>BOND
   1    1   16 1
   2    1    7 1
   3    1   10 1
   4    2   12 1
   5    2    5 1
   6    3    4 ar
   7    3    5 ar
   8    4    9 1
   9    4    8 ar
  10    5    6 ar
  11    6    7 ar
  12    7    8 ar
  13    8   11 1
  14    9   37 1
  15    9   38 1
  16   10   11 2
  17   10   35 1
  18   12   13 1
  19   12   39 1
  20   12   40 1
  21   13   14 1
  22   13   41 1
  23   13   42 1
  24   14   15 1
  25   15   43 1
  26   15   44 1
  27   15   45 1
  28   16   17 1
  29   16   46 1
  30   16   47 1
  31   17   18 ar
  32   17   22 ar
  33   18   19 ar
  34   18   48 1
  35   19   20 ar
  36   19   49 1
  37   20   21 ar
  38   20   23 1
  39   21   22 ar
  40   21   50 1
  41   22   51 1
  42   23   24 ar
  43   23   25 ar
  44   24   28 ar
  45   24   52 1
  46   25   26 ar
  47   26   27 ar
  48   26   53 1
  49   27   28 ar
  50   27   29 1
  51   28   54 1
  52   29   30 1
  53   29   55 1
  54   29   56 1
  55   30   31 1
  56   30   34 1
  57   31   32 1
  58   31   57 1
  59   31   58 1
  60   32   33 1
  61   32   59 1
  62   32   60 1
  63   33   34 1
  64   33   61 1
  65   33   62 1
  66   34   63 1
  67   34   64 1
  68   35   36 1
  69   36   65 1
  70   36   66 1
  71   36   67 1

#	End of record

