#	Name: ASD05730160
#	Creating user name:	WinNT
#	Creation time:	15. 06. 2019 21:02

#	Modifying user name:	WinNT
#	Modification time:	15. 06. 2019 21:02

#	Program:	/corina/corina34_cracker 3.40 0067  02.08.2006

@<TRIPOS>MOLECULE
ASD05730160
  24   25    0    0    0
SMALL
NO_CHARGES


@<TRIPOS>ATOM
   1 C1            -0.0168     1.3859     0.0097 C.ar    
   2 C2             0.0021    -0.0041     0.0020 C.ar    
   3 C3             1.2140    -0.6766    -0.0131 C.ar    
   4 C4             2.4046     0.0252    -0.0202 C.ar    
   5 C5             2.4031     1.4107    -0.0123 C.ar    
   6 C6             1.1950     2.1006     0.0019 C.ar    
   7 C7             1.1689     3.5779     0.0095 C.2     
   8 C8            -0.1263     4.2904     0.0252 C.2     
   9 C9            -1.2927     3.6035     0.0331 C.2     
  10 C10           -1.2974     2.1242     0.0197 C.2     
  11 O11           -2.3501     1.5181     0.0214 O.2     
  12 O12            2.2088     4.2052     0.0033 O.2     
  13 C13           -2.5749     4.3391     0.0492 C.2     
  14 O14           -2.5782     5.5536     0.0553 O.2     
  15 O15           -3.7397     3.6623     0.0572 O.3     
  16 C16           -4.9595     4.4498     0.0730 C.3     
  17 H17           -0.9248    -0.5583     0.0082 H       
  18 H18            1.2281    -1.7565    -0.0191 H       
  19 H19            3.3426    -0.5100    -0.0317 H       
  20 H20            3.3368     1.9534    -0.0179 H       
  21 H21           -0.1421     5.3702     0.0307 H       
  22 H22           -4.9774     5.0741     0.9663 H       
  23 H23           -4.9947     5.0829    -0.8135 H       
  24 H24           -5.8221     3.7834     0.0781 H       
@<TRIPOS>BOND
   1    1    2 ar
   2    1    6 ar
   3    1   10 1
   4    2    3 ar
   5    2   17 1
   6    3    4 ar
   7    3   18 1
   8    4    5 ar
   9    4   19 1
  10    5    6 ar
  11    5   20 1
  12    6    7 1
  13    7    8 1
  14    7   12 2
  15    8    9 2
  16    8   21 1
  17    9   10 1
  18    9   13 1
  19   10   11 2
  20   13   14 2
  21   13   15 1
  22   15   16 1
  23   16   22 1
  24   16   23 1
  25   16   24 1

#	End of record

