#	Name: ASD00170012
#	Creating user name:	WinNT
#	Creation time:	15. 06. 2019 18:31

#	Modifying user name:	WinNT
#	Modification time:	15. 06. 2019 18:31

#	Program:	/corina/corina34_cracker 3.40 0067  02.08.2006

@<TRIPOS>MOLECULE
ASD00170012
  48   51    0    0    0
SMALL
NO_CHARGES


@<TRIPOS>ATOM
   1 C1             0.4503     1.7194     0.7256 C.ar    
   2 C2             3.9690     8.7140    -5.2521 C.ar    
   3 C3             3.6317     7.4085    -4.9636 C.ar    
   4 C4             4.5842     6.5501    -4.4114 C.ar    
   5 C5             5.8734     7.0198    -4.1542 C.ar    
   6 C6             6.1989     8.3275    -4.4465 C.ar    
   7 C7             5.2497     9.1745    -4.9943 C.ar    
   8 C8             4.2287     5.1489    -4.0996 C.2     
   9 C9             5.2569     4.2206    -3.6300 C.2     
  10 O10            3.0799     4.7679    -4.2339 O.2     
  11 Cl11           5.6668    10.8195    -5.3597 Cl      
  12 C12            5.5412     3.9787    -2.2312 C.2     
  13 C13            6.5123     3.0992    -2.0408 C.2     
  14 S14            7.1369     2.5142    -3.5724 S.3     
  15 C15            6.0549     3.4783    -4.4695 C.2     
  16 N16            5.9928     3.5147    -5.8478 N.pl3   
  17 C17            4.8064     4.6597    -1.1054 C.3     
  18 N18            3.5164     3.9913    -0.8877 N.3     
  19 C19            2.8774     4.4692     0.3464 C.3     
  20 C20            1.5044     3.8096     0.4952 C.3     
  21 N21            1.6656     2.3491     0.5204 N.3     
  22 C22            2.3046     1.8713    -0.7137 C.3     
  23 C23            3.6776     2.5309    -0.8624 C.3     
  24 N24            0.4080     0.3961     0.7769 N.ar    
  25 C25           -0.7370    -0.2367     0.9720 C.ar    
  26 C26           -1.9003     0.5015     1.1233 C.ar    
  27 C27           -1.8202     1.8840     1.0642 C.ar    
  28 N28           -0.6424     2.4544     0.8714 N.ar    
  29 H29            3.2343     9.3778    -5.6834 H       
  30 H30            2.6327     7.0506    -5.1647 H       
  31 H31            6.6143     6.3604    -3.7267 H       
  32 H32            7.1959     8.6921    -4.2477 H       
  33 H33            6.8721     2.7844    -1.0724 H       
  34 H34            6.6444     3.0272    -6.3756 H       
  35 H35            5.2975     4.0277    -6.2886 H       
  36 H36            5.4032     4.6030    -0.1951 H       
  37 H37            4.6351     5.7048    -1.3631 H       
  38 H38            3.5003     4.2096     1.2025 H       
  39 H39            2.7576     5.5515     0.2983 H       
  40 H40            1.0408     4.1404     1.4246 H       
  41 H41            0.8725     4.0912    -0.3471 H       
  42 H42            2.4244     0.7889    -0.6656 H       
  43 H43            1.6818     2.1309    -1.5697 H       
  44 H44            4.1412     2.2001    -1.7918 H       
  45 H45            4.3095     2.2493    -0.0201 H       
  46 H46           -0.7652    -1.3156     1.0125 H       
  47 H47           -2.8487     0.0101     1.2834 H       
  48 H48           -2.7081     2.4882     1.1780 H       
@<TRIPOS>BOND
   1    1   24 ar
   2    1   21 1
   3    1   28 ar
   4    2    3 ar
   5    2    7 ar
   6    2   29 1
   7    3    4 ar
   8    3   30 1
   9    4    5 ar
  10    4    8 1
  11    5    6 ar
  12    5   31 1
  13    6    7 ar
  14    6   32 1
  15    7   11 1
  16    8    9 1
  17    8   10 2
  18    9   12 1
  19    9   15 2
  20   12   13 2
  21   12   17 1
  22   13   14 1
  23   13   33 1
  24   14   15 1
  25   15   16 1
  26   16   34 1
  27   16   35 1
  28   17   18 1
  29   17   36 1
  30   17   37 1
  31   18   19 1
  32   18   23 1
  33   19   20 1
  34   19   38 1
  35   19   39 1
  36   20   21 1
  37   20   40 1
  38   20   41 1
  39   21   22 1
  40   22   23 1
  41   22   42 1
  42   22   43 1
  43   23   44 1
  44   23   45 1
  45   24   25 ar
  46   25   26 ar
  47   25   46 1
  48   26   27 ar
  49   26   47 1
  50   27   28 ar
  51   27   48 1

#	End of record

