#	Name: ASD07930595
#	Creating user name:	WinNT
#	Creation time:	15. 06. 2019 21:12

#	Modifying user name:	WinNT
#	Modification time:	15. 06. 2019 21:12

#	Program:	/corina/corina34_cracker 3.40 0067  02.08.2006

@<TRIPOS>MOLECULE
ASD07930595
  44   46    0    0    0
SMALL
NO_CHARGES


@<TRIPOS>ATOM
   1 C1            -0.0502     1.4821    -0.0094 C.3     
   2 N2             0.7773    -0.3946    -2.1782 N.2     
   3 N3            -0.8979    -1.7688    -1.3026 N.pl3   
   4 C4            -0.9127    -2.8082    -0.2679 C.3     
   5 C5            -1.2240    -2.1653     1.0907 C.3     
   6 S6             0.0078    -0.8612     1.4011 S.o2    
   7 N7            -0.0234     0.0174    -0.0143 N.am    
   8 C8            -0.0231    -0.7068    -1.1980 C.2     
   9 C9             0.4557    -3.4900    -0.2090 C.3     
  10 C10           -1.9712    -3.8296    -0.5958 C.ar    
  11 N11           -2.9585    -4.0401     0.2534 N.ar    
  12 C12           -3.9096    -4.9270     0.0068 C.ar    
  13 C13           -3.8971    -5.6721    -1.1665 C.ar    
  14 C14           -2.8750    -5.4754    -2.0785 C.ar    
  15 C15           -1.8985    -4.5308    -1.7859 C.ar    
  16 O16           -0.4553     0.0438     2.3940 O.2     
  17 O17            1.3184    -1.4077     1.4540 O.2     
  18 F18           -0.8837    -4.3075    -2.6493 F       
  19 N19           -4.9340    -5.1160     0.9335 N.am    
  20 C20           -4.8976    -4.4748     2.1184 C.2     
  21 O21           -3.9277    -3.8065     2.4182 O.2     
  22 C22           -6.0385    -4.5844     3.0544 C.ar    
  23 C23           -5.9947    -3.9184     4.2791 C.ar    
  24 C24           -8.1319    -5.4353     3.5207 C.ar    
  25 N25           -7.0978    -5.3118     2.7189 N.ar    
  26 C26           -7.0721    -4.0310     5.1458 C.ar    
  27 C27           -8.1548    -4.8053     4.7574 C.ar    
  28 Cl28          -9.5285    -4.9794     5.8044 Cl      
  29 Cl29          -4.6118    -2.9629     4.7129 Cl      
  30 H30            0.9706     1.8643    -0.0191 H       
  31 H31           -0.5801     1.8388    -0.8927 H       
  32 H32           -0.5611     1.8332     0.8872 H       
  33 H33            0.7641    -0.9119    -2.9987 H       
  34 H34           -1.4993    -1.8299    -2.0612 H       
  35 H35           -2.2231    -1.7299     1.0709 H       
  36 H36           -1.1667    -2.9193     1.8757 H       
  37 H37            1.2200    -2.7506     0.0301 H       
  38 H38            0.4440    -4.2623     0.5601 H       
  39 H39            0.6779    -3.9428    -1.1753 H       
  40 H40           -4.6746    -6.3953    -1.3636 H       
  41 H41           -2.8391    -6.0402    -2.9984 H       
  42 H42           -5.6729    -5.7089     0.7254 H       
  43 H43           -8.9756    -6.0352     3.2130 H       
  44 H44           -7.0674    -3.5275     6.1012 H       
@<TRIPOS>BOND
   1    1    7 1
   2    1   30 1
   3    1   31 1
   4    1   32 1
   5    2    8 2
   6    2   33 1
   7    3    4 1
   8    3    8 1
   9    3   34 1
  10    4    5 1
  11    4    9 1
  12    4   10 1
  13    5    6 1
  14    5   35 1
  15    5   36 1
  16    6    7 am
  17    6   16 2
  18    6   17 2
  19    7    8 1
  20    9   37 1
  21    9   38 1
  22    9   39 1
  23   10   11 ar
  24   10   15 ar
  25   11   12 ar
  26   12   13 ar
  27   12   19 1
  28   13   14 ar
  29   13   40 1
  30   14   15 ar
  31   14   41 1
  32   15   18 1
  33   19   20 am
  34   19   42 1
  35   20   21 2
  36   20   22 1
  37   22   23 ar
  38   22   25 ar
  39   23   26 ar
  40   23   29 1
  41   24   25 ar
  42   24   27 ar
  43   24   43 1
  44   26   27 ar
  45   26   44 1
  46   27   28 1

#	End of record

