#	Name: ASD05513002
#	Creating user name:	WinNT
#	Creation time:	15. 06. 2019 21:01

#	Modifying user name:	WinNT
#	Modification time:	15. 06. 2019 21:01

#	Program:	/corina/corina34_cracker 3.40 0067  02.08.2006

@<TRIPOS>MOLECULE
ASD05513002
  31   34    0    0    0
SMALL
NO_CHARGES


@<TRIPOS>ATOM
   1 C1             1.1752     1.3067     1.0353 C.ar    
   2 C2             1.1916    -0.0823     0.9110 C.ar    
   3 C3             1.2164    -0.6815    -0.3585 C.ar    
   4 C4             1.2238     0.1275    -1.4869 C.ar    
   5 C5             1.2075     1.5035    -1.3582 C.ar    
   6 C6             1.1834     2.0967    -0.1024 C.ar    
   7 C7             1.1889    -1.1803     1.8958 C.2     
   8 C8             1.2140    -2.4344     1.0734 C.2     
   9 N9             1.2290    -2.0698    -0.2204 N.am    
  10 O10            1.1709    -1.0891     3.1058 O.2     
  11 O11            1.2195    -3.5706     1.4983 O.2     
  12 C12            2.3922     5.4683     0.3308 C.ar    
  13 C13            3.5972     6.1377     0.4310 C.ar    
  14 C14            4.7949     5.4460     0.3080 C.ar    
  15 C15            4.7631     4.0608     0.0815 C.ar    
  16 C16            3.5444     3.3901    -0.0191 C.ar    
  17 C17            2.3604     4.0978     0.1067 C.ar    
  18 N18            6.1195     5.8799     0.3689 N.am    
  19 C19            6.9782     4.8604     0.1955 C.2     
  20 C20            6.1665     3.6147    -0.0022 C.2     
  21 O21            6.5748     2.4875    -0.1898 O.2     
  22 O22            8.1891     4.9345     0.1978 O.2     
  23 O23            1.1680     3.4517     0.0099 O.3     
  24 H24            1.1517     1.7639     2.0135 H       
  25 H25            1.2428    -0.3203    -2.4695 H       
  26 H26            1.2139     2.1235    -2.2425 H       
  27 H27            1.2466    -2.6929    -0.9636 H       
  28 H28            1.4665     6.0152     0.4322 H       
  29 H29            3.6073     7.2035     0.6054 H       
  30 H30            3.5240     2.3245    -0.1934 H       
  31 H31            6.3868     6.8005     0.5171 H       
@<TRIPOS>BOND
   1    1    2 ar
   2    1    6 ar
   3    1   24 1
   4    2    3 ar
   5    2    7 1
   6    3    4 ar
   7    3    9 1
   8    4    5 ar
   9    4   25 1
  10    5    6 ar
  11    5   26 1
  12    6   23 1
  13    7    8 1
  14    7   10 2
  15    8    9 am
  16    8   11 2
  17    9   27 1
  18   12   13 ar
  19   12   17 ar
  20   12   28 1
  21   13   14 ar
  22   13   29 1
  23   14   15 ar
  24   14   18 1
  25   15   16 ar
  26   15   20 1
  27   16   17 ar
  28   16   30 1
  29   17   23 1
  30   18   19 am
  31   18   31 1
  32   19   20 1
  33   19   22 2
  34   20   21 2

#	End of record

