#	Name: ASD03910122
#	Creating user name:	WinNT
#	Creation time:	15. 06. 2019 20:47

#	Modifying user name:	WinNT
#	Modification time:	15. 06. 2019 20:47

#	Program:	/corina/corina34_cracker 3.40 0067  02.08.2006

@<TRIPOS>MOLECULE
ASD03910122
  31   32    0    0    0
SMALL
NO_CHARGES


@<TRIPOS>ATOM
   1 C1            -0.0169     1.3961     0.0097 C.ar    
   2 C2             0.0021    -0.0041     0.0020 C.ar    
   3 C3             1.2096    -0.6746    -0.0131 C.ar    
   4 C4             2.4047     0.0359    -0.0207 C.ar    
   5 C5             2.3968     1.4162    -0.0128 C.ar    
   6 C6             1.1942     2.1062     0.0020 C.ar    
   7 O7             1.2296    -2.0343    -0.0202 O.3     
   8 C8             2.5122    -2.6642    -0.0358 C.3     
   9 C9            -1.2955     2.1170     0.0197 C.2     
  10 O10            1.1878     3.4629     0.0089 O.3     
  11 C11            2.4580     4.1177     0.0003 C.3     
  12 C12            2.2535     5.6107     0.0097 C.ar    
  13 N13            1.9628     7.6157    -1.1771 N.ar    
  14 C14            2.1418     6.3091    -1.1774 C.ar    
  15 C15            2.1695     6.3003     1.2099 C.ar    
  16 C16            1.9811     7.6731     1.1702 C.ar    
  17 C17            1.8841     8.3045    -0.0555 C.ar    
  18 O18           -2.3398     1.4999     0.0213 O.2     
  19 H19           -0.9249    -0.5582     0.0083 H       
  20 H20            3.3449    -0.4954    -0.0325 H       
  21 H21            3.3298     1.9601    -0.0180 H       
  22 H22            2.3853    -3.7468    -0.0400 H       
  23 H23            3.0561    -2.3586    -0.9296 H       
  24 H24            3.0735    -2.3676     0.8503 H       
  25 H25           -1.3064     3.1970     0.0256 H       
  26 H26            3.0246     3.8229     0.8835 H       
  27 H27            3.0080     3.8319    -0.8963 H       
  28 H28            2.2021     5.7788    -2.1163 H       
  29 H29            2.2485     5.7801     2.1530 H       
  30 H30            1.9108     8.2421     2.0855 H       
  31 H31            1.7370     9.3738    -0.0950 H       
@<TRIPOS>BOND
   1    1    2 ar
   2    1    6 ar
   3    1    9 1
   4    2    3 ar
   5    2   19 1
   6    3    4 ar
   7    3    7 1
   8    4    5 ar
   9    4   20 1
  10    5    6 ar
  11    5   21 1
  12    6   10 1
  13    7    8 1
  14    8   22 1
  15    8   23 1
  16    8   24 1
  17    9   18 2
  18    9   25 1
  19   10   11 1
  20   11   12 1
  21   11   26 1
  22   11   27 1
  23   12   15 ar
  24   12   14 ar
  25   13   14 ar
  26   13   17 ar
  27   14   28 1
  28   15   16 ar
  29   15   29 1
  30   16   17 ar
  31   16   30 1
  32   17   31 1

#	End of record

