#	Name: ASD00840110
#	Creating user name:	WinNT
#	Creation time:	15. 06. 2019 18:37

#	Modifying user name:	WinNT
#	Modification time:	15. 06. 2019 18:37

#	Program:	/corina/corina34_cracker 3.40 0067  02.08.2006

@<TRIPOS>MOLECULE
ASD00840110
  91   96    0    0    0
SMALL
NO_CHARGES


@<TRIPOS>ATOM
   1 N1             0.0401     1.3338     0.1145 N.3     
   2 C2            -0.5060     1.7153    -1.1954 C.3     
   3 C3             0.3892     1.1524    -2.3019 C.3     
   4 N4             0.4645    -0.3094    -2.1714 N.3     
   5 C5             1.0106    -0.6909    -0.8614 C.3     
   6 C6             0.1154    -0.1280     0.2450 C.3     
   7 N7            -2.1956     5.0764     3.0978 N.am    
   8 C8            -2.2012     3.7779     2.7536 C.2     
   9 C9            -0.8876     3.1869     3.2192 C.3     
  10 C10           -0.1707     4.3510     3.8646 C.ar    
  11 C11            1.0534     4.4679     4.4738 C.ar    
  12 C12            1.4586     5.7035     4.9900 C.ar    
  13 C13            0.6069     6.8096     4.8783 C.ar    
  14 C14           -0.6201     6.6792     4.2647 C.ar    
  15 C15           -1.0227     5.4464     3.7499 C.ar    
  16 O16           -3.0918     3.1894     2.1779 O.2     
  17 S17           -3.4403     6.1204     2.7767 S.o2    
  18 O18           -2.8775     7.4252     2.7684 O.2     
  19 O19           -4.1490     5.5727     1.6736 O.2     
  20 C20           -4.5390     6.0612     4.1529 C.ar    
  21 C21           -4.3599     6.9260     5.2168 C.ar    
  22 C22           -5.2199     6.8816     6.2969 C.ar    
  23 C23           -6.2640     5.9682     6.3136 C.ar    
  24 C24           -6.4416     5.1016     5.2450 C.ar    
  25 C25           -5.5822     5.1538     4.1646 C.ar    
  26 O26           -7.1112     5.9222     7.3753 O.3     
  27 C27           -8.1635     4.9567     7.3243 C.3     
  28 F28            0.9889     8.0071     5.3736 F       
  29 C29           -1.1285     2.0913     4.2256 C.ar    
  30 C30           -1.9555     1.0241     3.9056 C.ar    
  31 C31           -2.1753     0.0173     4.8341 C.ar    
  32 C32           -1.5705     0.0794     6.0748 C.ar    
  33 C33           -0.7474     1.1440     6.3914 C.ar    
  34 C34           -0.5218     2.1458     5.4653 C.ar    
  35 O35           -2.5495     0.9656     2.6847 O.3     
  36 C36           -3.3878    -0.1621     2.4245 C.3     
  37 C37           -3.9635    -0.0543     1.0110 C.3     
  38 C38            2.7338     5.8360     5.6280 C.1     
  39 N39            3.7454     5.9411     6.1341 N.1     
  40 C40           -0.0981     2.6647     2.0467 C.2     
  41 O41            1.0744     2.9516     1.9289 O.2     
  42 N42           -0.6949     1.8787     1.1288 N.am    
  43 N43            1.4579    -2.7727    -5.4468 N.3     
  44 C44            2.1882    -3.0145    -4.1960 C.3     
  45 C45            1.4165    -2.3996    -3.0262 C.3     
  46 C46            1.2550    -0.8953    -3.2621 C.3     
  47 C47            0.5345    -0.6701    -4.5943 C.3     
  48 C48            1.3317    -1.3352    -5.7187 C.3     
  49 C49            2.0973    -3.4672    -6.5723 C.3     
  50 C50            1.1833    -3.4017    -7.7976 C.3     
  51 H51           -1.5128     1.3112    -1.3014 H       
  52 H52           -0.5400     2.8020    -1.2728 H       
  53 H53           -0.0298     1.4096    -3.2747 H       
  54 H54            1.3889     1.5775    -2.2123 H       
  55 H55            1.0446    -1.7776    -0.7841 H       
  56 H56            2.0173    -0.2867    -0.7555 H       
  57 H57            0.5344    -0.3851     1.2179 H       
  58 H58           -0.8843    -0.5530     0.1554 H       
  59 H59            1.7021     3.6082     4.5548 H       
  60 H60           -1.2731     7.5354     4.1816 H       
  61 H61           -3.5467     7.6366     5.2034 H       
  62 H62           -5.0794     7.5570     7.1278 H       
  63 H63           -7.2537     4.3896     5.2557 H       
  64 H64           -5.7229     4.4826     3.3303 H       
  65 H65           -8.7927     5.1507     6.4556 H       
  66 H66           -7.7359     3.9571     7.2472 H       
  67 H67           -8.7644     5.0260     8.2310 H       
  68 H68           -2.8188    -0.8142     4.5875 H       
  69 H69           -1.7413    -0.7043     6.7981 H       
  70 H70           -0.2762     1.1910     7.3620 H       
  71 H71            0.1255     2.9741     5.7132 H       
  72 H72           -2.8022    -1.0775     2.5095 H       
  73 H73           -4.2027    -0.1837     3.1480 H       
  74 H74           -4.6029    -0.9144     0.8126 H       
  75 H75           -4.5491     0.8611     0.9261 H       
  76 H76           -3.1485    -0.0327     0.2875 H       
  77 H77           -1.6465     1.6999     1.1884 H       
  78 H78            2.2925    -4.0879    -4.0380 H       
  79 H79            3.1765    -2.5590    -4.2585 H       
  80 H80            0.4332    -2.8643    -2.9544 H       
  81 H81            1.9666    -2.5656    -2.0999 H       
  82 H82            2.2373    -0.4240    -3.2940 H       
  83 H83           -0.4627    -1.1077    -4.5473 H       
  84 H84            0.4544     0.3995    -4.7885 H       
  85 H85            2.3241    -0.8876    -5.7741 H       
  86 H86            0.8140    -1.1889    -6.6666 H       
  87 H87            3.0484    -2.9871    -6.8025 H       
  88 H88            2.2717    -4.5093    -6.3045 H       
  89 H89            0.2322    -3.8818    -7.5675 H       
  90 H90            1.0089    -2.3596    -8.0655 H       
  91 H91            1.6577    -3.9170    -8.6328 H       
@<TRIPOS>BOND
   1    1    2 1
   2    1    6 1
   3    1   42 1
   4    2    3 1
   5    2   51 1
   6    2   52 1
   7    3    4 1
   8    3   53 1
   9    3   54 1
  10    4    5 1
  11    4   46 1
  12    5    6 1
  13    5   55 1
  14    5   56 1
  15    6   57 1
  16    6   58 1
  17    7    8 am
  18    7   15 1
  19    7   17 am
  20    8    9 1
  21    8   16 2
  22    9   10 1
  23    9   29 1
  24    9   40 1
  25   10   11 ar
  26   10   15 ar
  27   11   12 ar
  28   11   59 1
  29   12   13 ar
  30   12   38 1
  31   13   14 ar
  32   13   28 1
  33   14   15 ar
  34   14   60 1
  35   17   18 2
  36   17   19 2
  37   17   20 1
  38   20   21 ar
  39   20   25 ar
  40   21   22 ar
  41   21   61 1
  42   22   23 ar
  43   22   62 1
  44   23   24 ar
  45   23   26 1
  46   24   25 ar
  47   24   63 1
  48   25   64 1
  49   26   27 1
  50   27   65 1
  51   27   66 1
  52   27   67 1
  53   29   30 ar
  54   29   34 ar
  55   30   31 ar
  56   30   35 1
  57   31   32 ar
  58   31   68 1
  59   32   33 ar
  60   32   69 1
  61   33   34 ar
  62   33   70 1
  63   34   71 1
  64   35   36 1
  65   36   37 1
  66   36   72 1
  67   36   73 1
  68   37   74 1
  69   37   75 1
  70   37   76 1
  71   38   39 3
  72   40   41 2
  73   40   42 am
  74   42   77 1
  75   43   44 1
  76   43   48 1
  77   43   49 1
  78   44   45 1
  79   44   78 1
  80   44   79 1
  81   45   46 1
  82   45   80 1
  83   45   81 1
  84   46   47 1
  85   46   82 1
  86   47   48 1
  87   47   83 1
  88   47   84 1
  89   48   85 1
  90   48   86 1
  91   49   50 1
  92   49   87 1
  93   49   88 1
  94   50   89 1
  95   50   90 1
  96   50   91 1

#	End of record

