#	Name: ASD03590001
#	Creating user name:	WinNT
#	Creation time:	15. 06. 2019 20:43

#	Modifying user name:	WinNT
#	Modification time:	15. 06. 2019 20:43

#	Program:	/corina/corina34_cracker 3.40 0067  02.08.2006

@<TRIPOS>MOLECULE
ASD03590001
 120  119    0    0    0
SMALL
NO_CHARGES


@<TRIPOS>ATOM
   1 C1            -0.3005     1.4919     5.2137 C.3     
   2 C2            -0.2703     0.0145     4.8168 C.3     
   3 C3            -1.7024    -0.5101     4.6948 C.3     
   4 C4            -1.6722    -1.9874     4.2978 C.3     
   5 C5            -3.1042    -2.5121     4.1758 C.3     
   6 C6            -3.0745    -3.9671     3.7849 C.2     
   7 C7            -3.7004    -4.8550     4.5171 C.2     
   8 C8            -3.6707    -6.3101     4.1261 C.3     
   9 C9            -3.1502    -7.1429     5.2993 C.3     
  10 C10           -3.1200    -8.6202     4.9024 C.3     
  11 C11           -2.5995    -9.4530     6.0756 C.3     
  12 C12           -2.5694   -10.9303     5.6787 C.3     
  13 C13           -2.0489   -11.7631     6.8519 C.3     
  14 C14           -2.0187   -13.2404     6.4549 C.3     
  15 C15           -1.5061   -14.0607     7.6105 C.2     
  16 O16           -1.3933   -15.3928     7.4901 O.3     
  17 C17           -0.8925   -16.1189     8.6435 C.3     
  18 C18           -1.4927   -17.5261     8.6604 C.3     
  19 O19           -1.0203   -18.2677     7.5049 O.3     
  20 C20           -1.4572   -19.5297     7.3703 C.2     
  21 C21           -1.0095   -20.3610     6.1958 C.3     
  22 C22           -1.6476   -21.7489     6.2805 C.3     
  23 C23           -1.1930   -22.5929     5.0881 C.3     
  24 C24           -1.8312   -23.9809     5.1728 C.3     
  25 C25           -1.3766   -24.8249     3.9803 C.3     
  26 C26           -2.0147   -26.2128     4.0650 C.3     
  27 C27           -1.5601   -27.0568     2.8725 C.3     
  28 C28           -2.1983   -28.4448     2.9572 C.3     
  29 C29           -1.7437   -29.2888     1.7648 C.3     
  30 C30           -2.3818   -30.6767     1.8495 C.3     
  31 C31           -1.9272   -31.5207     0.6570 C.3     
  32 C32           -2.5654   -32.9087     0.7417 C.3     
  33 C33           -2.1108   -33.7526    -0.4507 C.3     
  34 O34           -2.2096   -19.9992     8.1910 O.2     
  35 O35           -1.1966   -13.5193     8.6454 O.2     
  36 C36            0.6323   -16.2157     8.5625 C.3     
  37 O37            0.9999   -17.0056     7.4298 O.3     
  38 P38            2.5300   -17.3170     7.0373 P.3     
  39 O39            3.2726   -16.0444     6.8987 O.2     
  40 O40            3.2086   -18.2115     8.1912 O.3     
  41 O41            2.5735   -18.1185     5.6417 O.3     
  42 C42            3.7917   -18.4503     4.9724 C.3     
  43 C43            3.4744   -19.2074     3.6813 C.3     
  44 N44            2.8013   -18.3052     2.7373 N.4     
  45 C45            3.6332   -17.1141     2.5205 C.3     
  46 C46            2.5963   -18.9987     1.4587 C.3     
  47 C47            1.5013   -17.9007     3.2889 C.3     
  48 H48            0.7197     1.8656     5.3007 H       
  49 H49           -0.8326     2.0619     4.4522 H       
  50 H50           -0.8100     1.6005     6.1711 H       
  51 H51            0.2392    -0.0941     3.8594 H       
  52 H52            0.2618    -0.5555     5.5784 H       
  53 H53           -2.2119    -0.4015     5.6522 H       
  54 H54           -2.2345     0.0600     3.9332 H       
  55 H55           -1.1626    -2.0960     3.3404 H       
  56 H56           -1.1401    -2.5575     5.0594 H       
  57 H57           -3.6138    -2.4034     5.1333 H       
  58 H58           -3.6364    -1.9420     3.4143 H       
  59 H59           -2.5373    -4.2780     2.9010 H       
  60 H60           -4.2376    -4.5442     5.4009 H       
  61 H61           -4.6775    -6.6373     3.8667 H       
  62 H62           -3.0131    -6.4421     3.2669 H       
  63 H63           -2.1433    -6.8158     5.5587 H       
  64 H64           -3.8077    -7.0109     6.1586 H       
  65 H65           -4.1269    -8.9474     4.6430 H       
  66 H66           -2.4625    -8.7522     4.0431 H       
  67 H67           -1.5927    -9.1259     6.3350 H       
  68 H68           -3.2571    -9.3210     6.9348 H       
  69 H69           -3.5762   -11.2575     5.4193 H       
  70 H70           -1.9118   -11.0623     4.8194 H       
  71 H71           -1.0420   -11.4360     7.1113 H       
  72 H72           -2.7065   -11.6311     7.7111 H       
  73 H73           -3.0256   -13.5676     6.1956 H       
  74 H74           -1.3612   -13.3724     5.5957 H       
  75 H75           -1.1751   -15.5924     9.5551 H       
  76 H76           -1.1876   -18.0404     9.5717 H       
  77 H77           -2.5801   -17.4577     8.6284 H       
  78 H78           -1.3164   -19.8759     5.2693 H       
  79 H79            0.0760   -20.4585     6.2125 H       
  80 H80           -1.3406   -22.2341     7.2071 H       
  81 H81           -2.7331   -21.6514     6.2638 H       
  82 H82           -1.5000   -22.1078     4.1615 H       
  83 H83           -0.1075   -22.6905     5.1048 H       
  84 H84           -1.5242   -24.4660     6.0993 H       
  85 H85           -2.9167   -23.8833     5.1561 H       
  86 H86           -1.6836   -24.3397     3.0537 H       
  87 H87           -0.2911   -24.9224     3.9970 H       
  88 H88           -1.7077   -26.6980     4.9916 H       
  89 H89           -3.1002   -26.1153     4.0483 H       
  90 H90           -1.8671   -26.5717     1.9460 H       
  91 H91           -0.4746   -27.1544     2.8892 H       
  92 H92           -1.8913   -28.9299     3.8838 H       
  93 H93           -3.2838   -28.3472     2.9405 H       
  94 H94           -2.0507   -28.8036     0.8382 H       
  95 H95           -0.6582   -29.3863     1.7815 H       
  96 H96           -2.0749   -31.1618     2.7761 H       
  97 H97           -3.4673   -30.5792     1.8328 H       
  98 H98           -2.2342   -31.0356    -0.2695 H       
  99 H99           -0.8417   -31.6183     0.6737 H       
 100 H100          -2.2584   -33.3938     1.6683 H       
 101 H101          -3.6509   -32.8111     0.7250 H       
 102 H102          -2.5654   -34.7415    -0.3904 H       
 103 H103          -2.4178   -33.2675    -1.3773 H       
 104 H104          -1.0253   -33.8502    -0.4340 H       
 105 H105           1.0550   -15.2162     8.4611 H       
 106 H106           1.0155   -16.6818     9.4703 H       
 107 H107           2.7726   -19.0622     8.3370 H       
 108 H108           4.3355   -17.5363     4.7333 H       
 109 H109           4.4032   -19.0778     5.6207 H       
 110 H110           4.4005   -19.5726     3.2373 H       
 111 H111           2.8217   -20.0510     3.9058 H       
 112 H112           4.5979   -17.4142     2.1112 H       
 113 H113           3.1338   -16.4447     1.8201 H       
 114 H114           3.7854   -16.5995     3.4693 H       
 115 H115           1.9790   -19.8826     1.6195 H       
 116 H116           2.0969   -18.3293     0.7583 H       
 117 H117           3.5610   -19.2988     1.0494 H       
 118 H118           1.6581   -17.2411     4.1424 H       
 119 H119           0.9296   -17.3754     2.5239 H       
 120 H120           0.9516   -18.7856     3.6098 H       
@<TRIPOS>BOND
   1    1    2 1
   2    1   48 1
   3    1   49 1
   4    1   50 1
   5    2    3 1
   6    2   51 1
   7    2   52 1
   8    3    4 1
   9    3   53 1
  10    3   54 1
  11    4    5 1
  12    4   55 1
  13    4   56 1
  14    5    6 1
  15    5   57 1
  16    5   58 1
  17    6    7 2
  18    6   59 1
  19    7    8 1
  20    7   60 1
  21    8    9 1
  22    8   61 1
  23    8   62 1
  24    9   10 1
  25    9   63 1
  26    9   64 1
  27   10   11 1
  28   10   65 1
  29   10   66 1
  30   11   12 1
  31   11   67 1
  32   11   68 1
  33   12   13 1
  34   12   69 1
  35   12   70 1
  36   13   14 1
  37   13   71 1
  38   13   72 1
  39   14   15 1
  40   14   73 1
  41   14   74 1
  42   15   16 1
  43   15   35 2
  44   16   17 1
  45   17   18 1
  46   17   36 1
  47   17   75 1
  48   18   19 1
  49   18   76 1
  50   18   77 1
  51   19   20 1
  52   20   21 1
  53   20   34 2
  54   21   22 1
  55   21   78 1
  56   21   79 1
  57   22   23 1
  58   22   80 1
  59   22   81 1
  60   23   24 1
  61   23   82 1
  62   23   83 1
  63   24   25 1
  64   24   84 1
  65   24   85 1
  66   25   26 1
  67   25   86 1
  68   25   87 1
  69   26   27 1
  70   26   88 1
  71   26   89 1
  72   27   28 1
  73   27   90 1
  74   27   91 1
  75   28   29 1
  76   28   92 1
  77   28   93 1
  78   29   30 1
  79   29   94 1
  80   29   95 1
  81   30   31 1
  82   30   96 1
  83   30   97 1
  84   31   32 1
  85   31   98 1
  86   31   99 1
  87   32   33 1
  88   32  100 1
  89   32  101 1
  90   33  102 1
  91   33  103 1
  92   33  104 1
  93   36   37 1
  94   36  105 1
  95   36  106 1
  96   37   38 1
  97   38   39 2
  98   38   40 1
  99   38   41 1
 100   40  107 1
 101   41   42 1
 102   42   43 1
 103   42  108 1
 104   42  109 1
 105   43   44 1
 106   43  110 1
 107   43  111 1
 108   44   45 1
 109   44   46 1
 110   44   47 1
 111   45  112 1
 112   45  113 1
 113   45  114 1
 114   46  115 1
 115   46  116 1
 116   46  117 1
 117   47  118 1
 118   47  119 1
 119   47  120 1

#	End of record

