#	Name: ASD01150714
#	Creating user name:	WinNT
#	Creation time:	15. 06. 2019 19:04

#	Modifying user name:	WinNT
#	Modification time:	15. 06. 2019 19:04

#	Program:	/corina/corina34_cracker 3.40 0067  02.08.2006

@<TRIPOS>MOLECULE
ASD01150714
  30   31    0    0    0
SMALL
NO_CHARGES


@<TRIPOS>ATOM
   1 C1            -0.0421     1.1921     0.0129 C.2     
   2 O2             0.6612     1.2330    -0.9785 O.2     
   3 C3             0.3957     0.4260     1.1980 C.ar    
   4 C4             1.5595    -0.3445     1.1444 C.ar    
   5 C5             1.9630    -1.0568     2.2537 C.ar    
   6 C6             1.2165    -1.0097     3.4198 C.ar    
   7 C7             0.0611    -0.2477     3.4792 C.ar    
   8 C8            -0.3495     0.4740     2.3786 C.ar    
   9 Cl9            1.7308    -1.9098     4.8123 Cl      
  10 C10           -1.3276     1.9114     0.0344 C.ar    
  11 C11           -2.5347     1.2046    -0.0924 C.ar    
  12 C12           -3.7411     1.8921    -0.0710 C.ar    
  13 C13           -3.7540     3.2643     0.0738 C.ar    
  14 C14           -2.5624     3.9695     0.1998 C.ar    
  15 C15           -1.3533     3.3011     0.1868 C.ar    
  16 O16           -2.5874     5.3218     0.3419 O.3     
  17 C17           -3.8712     5.9493     0.3532 C.3     
  18 F18           -4.6273     5.4455     1.4170 F       
  19 F19           -3.7136     7.3310     0.5063 F       
  20 F20           -4.5297     5.6859    -0.8527 F       
  21 N21           -2.5218    -0.1779    -0.2392 N.pl3   
  22 H22            2.1419    -0.3826     0.2356 H       
  23 H23            2.8626    -1.6529     2.2135 H       
  24 H24           -0.5168    -0.2153     4.3911 H       
  25 H25           -1.2478     1.0715     2.4276 H       
  26 H26           -4.6711     1.3517    -0.1682 H       
  27 H27           -4.6952     3.7937     0.0891 H       
  28 H28           -0.4297     3.8514     0.2898 H       
  29 H29           -1.6783    -0.6482    -0.3291 H       
  30 H30           -3.3564    -0.6720    -0.2517 H       
@<TRIPOS>BOND
   1    1    2 2
   2    1    3 1
   3    1   10 1
   4    3    4 ar
   5    3    8 ar
   6    4    5 ar
   7    4   22 1
   8    5    6 ar
   9    5   23 1
  10    6    7 ar
  11    6    9 1
  12    7    8 ar
  13    7   24 1
  14    8   25 1
  15   10   11 ar
  16   10   15 ar
  17   11   12 ar
  18   11   21 1
  19   12   13 ar
  20   12   26 1
  21   13   14 ar
  22   13   27 1
  23   14   15 ar
  24   14   16 1
  25   15   28 1
  26   16   17 1
  27   17   18 1
  28   17   19 1
  29   17   20 1
  30   21   29 1
  31   21   30 1

#	End of record

