#	Name: ASD01885020
#	Creating user name:	WinNT
#	Creation time:	15. 06. 2019 19:49

#	Modifying user name:	WinNT
#	Modification time:	15. 06. 2019 19:49

#	Program:	/corina/corina34_cracker 3.40 0067  02.08.2006

@<TRIPOS>MOLECULE
ASD01885020
  52   54    0    0    0
SMALL
NO_CHARGES


@<TRIPOS>ATOM
   1 C1            -0.0171     1.4074     0.0098 C.2     
   2 C2            -0.3907     0.6619     1.1487 C.2     
   3 C3            -1.5457    -0.0321     1.1577 C.2     
   4 N4            -2.3691    -0.0255     0.0695 N.pl3   
   5 C5            -2.0359     0.6892    -1.0552 C.2     
   6 C6            -0.8385     1.4254    -1.0853 C.2     
   7 Cl7           -0.4008     2.3347    -2.4978 Cl      
   8 C8            -3.5675    -0.6155    -0.2062 C.2     
   9 N9            -3.9088    -0.2641    -1.4180 N.2     
  10 N10           -3.0136     0.5055    -1.9296 N.2     
  11 N11            1.1769     2.1246     0.0022 N.pl3   
  12 C12            2.4681     1.4299     0.0964 C.3     
  13 C13            3.2698     2.0341     1.2535 C.3     
  14 C14            3.3832     3.5473     1.0550 C.3     
  15 C15            1.9853     4.1702     1.0588 C.3     
  16 C16            1.1693     3.5899    -0.1062 C.3     
  17 C17            4.2004     4.1406     2.1736 C.ar    
  18 C18            5.3707     4.8193     1.8899 C.ar    
  19 C19            6.1203     5.3635     2.9160 C.ar    
  20 C20            5.6992     5.2293     4.2258 C.ar    
  21 C21            4.5284     4.5514     4.5095 C.ar    
  22 C22            3.7766     4.0110     3.4830 C.ar    
  23 C23           -4.3539    -1.5099     0.7172 C.3     
  24 O24           -5.2458    -0.7169     1.5031 O.3     
  25 C25           -6.0430    -1.4722     2.4173 C.3     
  26 *26           -5.1634    -1.9241     3.6238 Du      
  27 H27            0.2520     0.6474     2.0165 H       
  28 H28           -1.8222    -0.5992     2.0343 H       
  29 H29            2.2997     0.3693     0.2831 H       
  30 H30            3.0196     1.5560    -0.8353 H       
  31 H31            2.7612     1.8278     2.1953 H       
  32 H32            4.2669     1.5941     1.2741 H       
  33 H33            3.8698     3.7530     0.1015 H       
  34 H34            1.4888     3.9438     2.0024 H       
  35 H35            2.0682     5.2506     0.9408 H       
  36 H36            1.6163     3.8939    -1.0526 H       
  37 H37            0.1433     3.9538    -0.0507 H       
  38 H38            5.6997     4.9241     0.8666 H       
  39 H39            7.0350     5.8932     2.6944 H       
  40 H40            6.2852     5.6539     5.0276 H       
  41 H41            4.1996     4.4463     5.5329 H       
  42 H42            2.8618     3.4813     3.7046 H       
  43 H43           -4.9272    -2.2259     0.1283 H       
  44 H44           -3.6690    -2.0458     1.3744 H       
  45 H45           -6.8654    -0.8546     2.7784 H       
  46 H46           -6.4435    -2.3503     1.9106 H       
  47 O47           13.0382    12.6993    11.4375 O.3     
  48 C48           13.0576    11.2704    11.4297 C.3     
  49 H49           13.9161    13.1046    11.4313 H       
  50 H50           13.5678    10.9189    10.5329 H       
  51 H51           13.5848    10.9094    12.3127 H       
  52 H52           12.0350    10.8932    11.4374 H       
@<TRIPOS>BOND
   1    1    2 1
   2    1   11 1
   3    1    6 2
   4    2    3 2
   5    2   27 1
   6    3    4 1
   7    3   28 1
   8    4    5 1
   9    4    8 1
  10    5    6 1
  11    5   10 2
  12    6    7 1
  13    8    9 2
  14    8   23 1
  15    9   10 1
  16   11   12 1
  17   11   16 1
  18   12   13 1
  19   12   29 1
  20   12   30 1
  21   13   14 1
  22   13   31 1
  23   13   32 1
  24   14   15 1
  25   14   17 1
  26   14   33 1
  27   15   16 1
  28   15   34 1
  29   15   35 1
  30   16   36 1
  31   16   37 1
  32   17   18 ar
  33   17   22 ar
  34   18   19 ar
  35   18   38 1
  36   19   20 ar
  37   19   39 1
  38   20   21 ar
  39   20   40 1
  40   21   22 ar
  41   21   41 1
  42   22   42 1
  43   23   24 1
  44   23   43 1
  45   23   44 1
  46   24   25 1
  47   25   26 1
  48   25   45 1
  49   25   46 1
  50   47   48 1
  51   47   49 1
  52   48   50 1
  53   48   51 1
  54   48   52 1

#	End of record

