#	Name: ASD00990029
#	Creating user name:	WinNT
#	Creation time:	15. 06. 2019 18:54

#	Modifying user name:	WinNT
#	Modification time:	15. 06. 2019 18:54

#	Program:	/corina/corina34_cracker 3.40 0067  02.08.2006

@<TRIPOS>MOLECULE
ASD00990029
  33   34    0    0    0
SMALL
NO_CHARGES


@<TRIPOS>ATOM
   1 C1            -0.0167     1.3804     0.0096 C.ar    
   2 C2             0.0021    -0.0041     0.0020 C.ar    
   3 C3            -1.1803    -0.7174     0.0099 C.ar    
   4 C4            -2.3940    -0.0467     0.0256 C.ar    
   5 C5            -2.4139     1.3470     0.0333 C.ar    
   6 C6            -1.2224     2.0588     0.0306 C.ar    
   7 O7            -3.6825    -0.4680     0.0361 O.3     
   8 C8            -4.4960     0.5995     0.0499 C.2     
   9 N9            -3.7570     1.7267     0.0486 N.am    
  10 O10           -5.7112     0.5564     0.0614 O.2     
  11 F11           -1.2399     3.4097     0.0380 F       
  12 I12            1.7845     2.4503    -0.0018 I       
  13 C13           -4.2695     3.0991     0.0611 C.3     
  14 C14           -4.4317     3.5618     1.4861 C.2     
  15 O15           -4.1483     2.8212     2.3977 O.2     
  16 O16           -4.8911     4.7967     1.7426 O.3     
  17 C17           -5.0218     5.1747     3.1384 C.3     
  18 C18           -3.6536     5.0955     3.8185 C.3     
  19 C19           -5.5556     6.6055     3.2315 C.3     
  20 C20           -5.9941     4.2213     3.8360 C.3     
  21 H21            0.9461    -0.5286    -0.0105 H       
  22 H22           -1.1599    -1.7972     0.0036 H       
  23 H23           -3.5678     3.7537    -0.4558 H       
  24 H24           -5.2352     3.1308    -0.4434 H       
  25 H25           -2.9610     5.7747     3.3215 H       
  26 H26           -3.7518     5.3793     4.8664 H       
  27 H27           -3.2733     4.0762     3.7522 H       
  28 H28           -6.5304     6.6619     2.7469 H       
  29 H29           -5.6538     6.8893     4.2793 H       
  30 H30           -4.8630     7.2847     2.7345 H       
  31 H31           -5.6138     3.2019     3.7697 H       
  32 H32           -6.0922     4.5050     4.8838 H       
  33 H33           -6.9688     4.2776     3.3515 H       
@<TRIPOS>BOND
   1    1    2 ar
   2    1   12 1
   3    1    6 ar
   4    2    3 ar
   5    2   21 1
   6    3    4 ar
   7    3   22 1
   8    4    5 ar
   9    4    7 1
  10    5    6 ar
  11    5    9 1
  12    6   11 1
  13    7    8 1
  14    8    9 am
  15    8   10 2
  16    9   13 1
  17   13   14 1
  18   13   23 1
  19   13   24 1
  20   14   15 2
  21   14   16 1
  22   16   17 1
  23   17   18 1
  24   17   19 1
  25   17   20 1
  26   18   25 1
  27   18   26 1
  28   18   27 1
  29   19   28 1
  30   19   29 1
  31   19   30 1
  32   20   31 1
  33   20   32 1
  34   20   33 1

#	End of record

