#	Name: ASD03330082
#	Creating user name:	WinNT
#	Creation time:	15. 06. 2019 20:36

#	Modifying user name:	WinNT
#	Modification time:	15. 06. 2019 20:36

#	Program:	/corina/corina34_cracker 3.40 0067  02.08.2006

@<TRIPOS>MOLECULE
ASD03330082
  69   72    0    0    0
SMALL
NO_CHARGES


@<TRIPOS>ATOM
   1 C1             1.4793     1.1869    -0.0105 C.2     
   2 C2             1.1595    -0.0274     0.5189 C.2     
   3 C3             2.7971     1.5591     0.1556 C.2     
   4 C4             3.5652     0.6372     0.8296 C.2     
   5 S5             2.5769    -0.7496     1.2664 S.3     
   6 C6             5.0000     0.7893     1.1382 C.ar    
   7 C7             5.4664     0.5665     2.4375 C.ar    
   8 C8             5.8993     1.1510     0.1325 C.ar    
   9 C9             7.2392     1.2916     0.4274 C.ar    
  10 C10            7.6945     1.0747     1.7173 C.ar    
  11 C11            6.8098     0.7107     2.7187 C.ar    
  12 C12            3.3401     2.8427    -0.3497 C.ar    
  13 C13            3.2106     3.1737    -1.6979 C.ar    
  14 C14            3.9764     3.7242     0.5233 C.ar    
  15 C15            4.4805     4.9175     0.0500 C.ar    
  16 C16            4.3545     5.2416    -1.2939 C.ar    
  17 C17            3.7170     4.3686    -2.1648 C.ar    
  18 C18           -0.1704    -0.6409     0.4719 C.2     
  19 O19           -1.1610     0.0376     0.6717 O.2     
  20 O20            4.8520     6.4185    -1.7571 O.3     
  21 N21           -0.2967    -1.9564     0.2073 N.am    
  22 C22           -1.6253    -2.5654     0.0564 C.3     
  23 C23            0.8916    -2.8075     0.0583 C.3     
  24 C24            0.8048    -3.5453    -1.2814 C.3     
  25 C25           -0.5235    -4.3016    -1.3576 C.3     
  26 C26           -1.6787    -3.3065    -1.2833 C.3     
  27 N27           -0.5957    -5.0372    -2.6271 N.3     
  28 C28           -1.9008    -5.6937    -2.7816 C.3     
  29 Cl29           4.3584     0.1101     3.6936 Cl      
  30 Cl30           9.3830     1.2535     2.0790 Cl      
  31 C31           -0.6148    -5.2729    -0.2090 C.2     
  32 N32           -0.0323    -6.4846    -0.3032 N.am    
  33 O33           -1.2125    -4.9642     0.8002 O.2     
  34 C34            4.6879     6.6886    -3.1507 C.3     
  35 C35            5.3062     8.0481    -3.4830 C.3     
  36 C36            5.1305     8.3372    -4.9751 C.3     
  37 F37           -0.8888    -7.5326    -3.9303 F       
  38 F38           -3.1321    -7.1863    -4.1890 F       
  39 O39            5.7081     9.6069    -5.2855 O.3     
  40 C40           -1.8893    -6.5611    -4.0419 C.3     
  41 F41           -1.6364    -5.7575    -5.1588 F       
  42 H42            0.7589     1.8068    -0.5235 H       
  43 H43            5.5462     1.3198    -0.8741 H       
  44 H44            7.9352     1.5712    -0.3496 H       
  45 H45            7.1713     0.5434     3.7225 H       
  46 H46            2.7147     2.4949    -2.3760 H       
  47 H47            4.0741     3.4729     1.5692 H       
  48 H48            4.9734     5.6007     0.7257 H       
  49 H49            3.6206     4.6237    -3.2098 H       
  50 H50           -1.7993    -3.2691     0.8704 H       
  51 H51           -2.3882    -1.7871     0.0741 H       
  52 H52            1.7889    -2.1889     0.0773 H       
  53 H53            0.9271    -3.5313     0.8725 H       
  54 H54            0.8608    -2.8251    -2.0977 H       
  55 H55            1.6309    -4.2519    -1.3618 H       
  56 H56           -2.6252    -3.8414    -1.3609 H       
  57 H57           -1.5961    -2.5914    -2.1018 H       
  58 H58           -0.4020    -4.4293    -3.4088 H       
  59 H59           -2.0978    -6.3198    -1.9114 H       
  60 H60           -2.6802    -4.9367    -2.8686 H       
  61 H61            0.5078    -6.7041    -1.0784 H       
  62 H62           -0.1532    -7.1371     0.4043 H       
  63 H63            5.1842     5.9118    -3.7323 H       
  64 H64            3.6258     6.7030    -3.3954 H       
  65 H65            4.8099     8.8249    -2.9014 H       
  66 H66            6.3683     8.0337    -3.2383 H       
  67 H67            5.6269     7.5604    -5.5567 H       
  68 H68            4.0685     8.3516    -5.2198 H       
  69 H69            5.6332     9.8560    -6.2169 H       
@<TRIPOS>BOND
   1    1    2 2
   2    1    3 1
   3    1   42 1
   4    2   18 1
   5    2    5 1
   6    3    4 2
   7    3   12 1
   8    4    5 1
   9    4    6 1
  10    6    7 ar
  11    6    8 ar
  12    7   29 1
  13    7   11 ar
  14    8    9 ar
  15    8   43 1
  16    9   10 ar
  17    9   44 1
  18   10   11 ar
  19   10   30 1
  20   11   45 1
  21   12   13 ar
  22   12   14 ar
  23   13   17 ar
  24   13   46 1
  25   14   15 ar
  26   14   47 1
  27   15   16 ar
  28   15   48 1
  29   16   17 ar
  30   16   20 1
  31   17   49 1
  32   18   19 2
  33   18   21 am
  34   20   34 1
  35   21   22 1
  36   21   23 1
  37   22   26 1
  38   22   50 1
  39   22   51 1
  40   23   24 1
  41   23   52 1
  42   23   53 1
  43   24   25 1
  44   24   54 1
  45   24   55 1
  46   25   26 1
  47   25   27 1
  48   25   31 1
  49   26   56 1
  50   26   57 1
  51   27   28 1
  52   27   58 1
  53   28   40 1
  54   28   59 1
  55   28   60 1
  56   31   32 am
  57   31   33 2
  58   32   61 1
  59   32   62 1
  60   34   35 1
  61   34   63 1
  62   34   64 1
  63   35   36 1
  64   35   65 1
  65   35   66 1
  66   36   39 1
  67   36   67 1
  68   36   68 1
  69   37   40 1
  70   38   40 1
  71   39   69 1
  72   40   41 1

#	End of record

