#	Name: ASD09890084
#	Creating user name:	WinNT
#	Creation time:	15. 06. 2019 21:24

#	Modifying user name:	WinNT
#	Modification time:	15. 06. 2019 21:24

#	Program:	/corina/corina34_cracker 3.40 0067  02.08.2006

@<TRIPOS>MOLECULE
ASD09890084
  45   48    0    0    0
SMALL
NO_CHARGES


@<TRIPOS>ATOM
   1 C1            -0.0176     1.3671     0.0631 C.2     
   2 N2            -0.0054    -0.0002     0.0334 N.pl3   
   3 C3            -1.2996    -0.4352     0.1154 C.2     
   4 N4            -2.0760     0.6192     0.1923 N.2     
   5 N5            -1.2621     1.7591     0.1648 N.2     
   6 S6            -1.8303    -2.1154     0.1165 S.3     
   7 C7            -3.6340    -1.9736     0.2470 C.3     
   8 C8             1.1337    -0.8132    -0.0639 C.ar    
   9 C9             2.0768    -0.8326     0.9595 C.ar    
  10 C10            3.1851    -1.6521     0.8178 C.ar    
  11 C11            3.3171    -2.4173    -0.3257 C.ar    
  12 N12            2.4052    -2.3757    -1.2776 N.ar    
  13 C13            1.3337    -1.6144    -1.1798 C.ar    
  14 C14           -4.2816    -3.3650     0.1363 C.3     
  15 C15           -5.0399    -3.6047     1.4581 C.3     
  16 C16           -5.3173    -2.1806     2.0005 C.3     
  17 C17           -4.0214    -1.4162     1.6323 C.3     
  18 O18            1.0702     2.1752     0.0035 O.3     
  19 C19            0.8650     3.5152    -0.0919 C.ar    
  20 C20           -0.4174     4.0099    -0.2838 C.ar    
  21 C21            1.9364     4.3909     0.0080 C.ar    
  22 C22            1.7255     5.7527    -0.0894 C.ar    
  23 C23            0.4472     6.2434    -0.2858 C.ar    
  24 C24           -0.6236     5.3721    -0.3805 C.ar    
  25 Br25           0.1616     8.1081    -0.4181 Br      
  26 C26            2.8889     6.7045     0.0191 C.3     
  27 H27           -4.0148    -1.3210    -0.5386 H       
  28 H28            1.9481    -0.2237     1.8421 H       
  29 H29            3.9373    -1.6922     1.5918 H       
  30 H30            4.1789    -3.0578    -0.4414 H       
  31 H31            0.6087    -1.6067    -1.9802 H       
  32 H32           -4.9772    -3.3875    -0.7026 H       
  33 H33           -3.5120    -4.1255     0.0041 H       
  34 H34           -5.9760    -4.1307     1.2709 H       
  35 H35           -4.4195    -4.1651     2.1576 H       
  36 H36           -6.1808    -1.7392     1.5028 H       
  37 H37           -5.4607    -2.1998     3.0808 H       
  38 H38           -3.2366    -1.6232     2.3599 H       
  39 H39           -4.2144    -0.3451     1.5722 H       
  40 H40           -1.2534     3.3302    -0.3577 H       
  41 H41            2.9345     4.0083     0.1621 H       
  42 H42           -1.6208     5.7573    -0.5339 H       
  43 H43            3.3064     6.8824    -0.9720 H       
  44 H44            2.5478     7.6483     0.4445 H       
  45 H45            3.6541     6.2711     0.6632 H       
@<TRIPOS>BOND
   1    1    2 1
   2    1   18 1
   3    1    5 2
   4    2    3 1
   5    2    8 1
   6    3    4 2
   7    3    6 1
   8    4    5 1
   9    6    7 1
  10    7   14 1
  11    7   17 1
  12    7   27 1
  13    8    9 ar
  14    8   13 ar
  15    9   10 ar
  16    9   28 1
  17   10   11 ar
  18   10   29 1
  19   11   12 ar
  20   11   30 1
  21   12   13 ar
  22   13   31 1
  23   14   15 1
  24   14   32 1
  25   14   33 1
  26   15   16 1
  27   15   34 1
  28   15   35 1
  29   16   17 1
  30   16   36 1
  31   16   37 1
  32   17   38 1
  33   17   39 1
  34   18   19 1
  35   19   20 ar
  36   19   21 ar
  37   20   24 ar
  38   20   40 1
  39   21   22 ar
  40   21   41 1
  41   22   23 ar
  42   22   26 1
  43   23   24 ar
  44   23   25 1
  45   24   42 1
  46   26   43 1
  47   26   44 1
  48   26   45 1

#	End of record

