#	Name: ASD00061057
#	Creating user name:	WinNT
#	Creation time:	15. 06. 2019 18:29

#	Modifying user name:	WinNT
#	Modification time:	15. 06. 2019 18:29

#	Program:	/corina/corina34_cracker 3.40 0067  02.08.2006

@<TRIPOS>MOLECULE
ASD00061057
  48   51    0    0    0
SMALL
NO_CHARGES


@<TRIPOS>ATOM
   1 C1            -0.0184     1.5028     0.0103 C.ar    
   2 C2             0.0021    -0.0041     0.0020 C.3     
   3 C3             0.7182    -0.4975    -1.2568 C.3     
   4 C4             0.6316    -2.0003    -1.3275 C.2     
   5 O5             0.0541    -2.6161    -0.4569 O.2     
   6 C6             1.2476    -2.7202    -2.4523 C.ar    
   7 C7             1.9175    -2.0002    -3.4613 C.ar    
   8 C8             2.4930    -2.6427    -4.5081 C.ar    
   9 C9             2.4258    -4.0459    -4.5976 C.ar    
  10 C10            1.7547    -4.7834    -3.5891 C.ar    
  11 C11            1.1700    -4.1050    -2.5100 C.ar    
  12 C12            0.7421    -0.5109     1.2415 C.3     
  13 C13            1.1848     2.2054     0.0026 C.ar    
  14 C14            1.2016     3.5666     0.0102 C.ar    
  15 C15           -0.0107     4.2767     0.0257 C.ar    
  16 C16           -1.2347     3.5618     0.0330 C.ar    
  17 C17           -1.2120     2.1570     0.0196 C.ar    
  18 C18            1.6915    -6.1855    -3.6862 C.ar    
  19 C19            2.2736    -6.8143    -4.7435 C.ar    
  20 C20            2.9329    -6.0891    -5.7342 C.ar    
  21 C21            3.0140    -4.7312    -5.6733 C.ar    
  22 C22           -0.0335     5.6819     0.0344 C.ar    
  23 C23           -1.2269     6.3359     0.0498 C.ar    
  24 C24           -2.4304     5.6329     0.0569 C.ar    
  25 C25           -2.4473     4.2722     0.0488 C.ar    
  26 C26           -0.0298    -0.1295     2.4784 C.2     
  27 O27           -1.0655     0.4848     2.3787 O.2     
  28 O28            0.4333    -0.4720     3.6908 O.3     
  29 H29           -1.0205    -0.3814     0.0098 H       
  30 H30            0.2444    -0.0644    -2.1377 H       
  31 H31            1.7648    -0.1951    -1.2215 H       
  32 H32            1.9731    -0.9234    -3.4007 H       
  33 H33            3.0031    -2.0771    -5.2738 H       
  34 H34            0.6600    -4.6548    -1.7328 H       
  35 H35            0.8346    -1.5958     1.1912 H       
  36 H36            1.7350    -0.0630     1.2804 H       
  37 H37            2.1181     1.6620    -0.0093 H       
  38 H38            2.1418     4.0979     0.0048 H       
  39 H39           -2.1368     1.5992     0.0250 H       
  40 H40            1.1840    -6.7600    -2.9253 H       
  41 H41            2.2241    -7.8907    -4.8157 H       
  42 H42            3.3866    -6.6122    -6.5631 H       
  43 H43            3.5278    -4.1834    -6.4493 H       
  44 H44            0.8912     6.2399     0.0294 H       
  45 H45           -1.2416     7.4157     0.0569 H       
  46 H46           -3.3637     6.1764     0.0690 H       
  47 H47           -3.3876     3.7409     0.0541 H       
  48 H48           -0.0965    -0.2053     4.4545 H       
@<TRIPOS>BOND
   1    1    2 1
   2    1   13 ar
   3    1   17 ar
   4    2    3 1
   5    2   12 1
   6    2   29 1
   7    3    4 1
   8    3   30 1
   9    3   31 1
  10    4    5 2
  11    4    6 1
  12    6    7 ar
  13    6   11 ar
  14    7    8 ar
  15    7   32 1
  16    8    9 ar
  17    8   33 1
  18    9   10 ar
  19    9   21 ar
  20   10   11 ar
  21   10   18 ar
  22   11   34 1
  23   12   26 1
  24   12   35 1
  25   12   36 1
  26   13   14 ar
  27   13   37 1
  28   14   15 ar
  29   14   38 1
  30   15   16 ar
  31   15   22 ar
  32   16   17 ar
  33   16   25 ar
  34   17   39 1
  35   18   19 ar
  36   18   40 1
  37   19   20 ar
  38   19   41 1
  39   20   21 ar
  40   20   42 1
  41   21   43 1
  42   22   23 ar
  43   22   44 1
  44   23   24 ar
  45   23   45 1
  46   24   25 ar
  47   24   46 1
  48   25   47 1
  49   26   27 2
  50   26   28 1
  51   28   48 1

#	End of record

