#	Name: ASD01814126
#	Creating user name:	WinNT
#	Creation time:	15. 06. 2019 19:31

#	Modifying user name:	WinNT
#	Modification time:	15. 06. 2019 19:31

#	Program:	/corina/corina34_cracker 3.40 0067  02.08.2006

@<TRIPOS>MOLECULE
ASD01814126
  49   51    0    0    0
SMALL
NO_CHARGES


@<TRIPOS>ATOM
   1 C1            -0.0178     1.4623     0.0101 C.2     
   2 C2             0.0021    -0.0041     0.0020 C.2     
   3 N3             1.1783    -0.6620    -0.0122 N.am    
   4 O4            -1.0434    -0.6268     0.0082 O.2     
   5 C5             1.1981    -2.1268    -0.0203 C.3     
   6 C6             2.6473    -2.6171    -0.0362 C.3     
   7 N7             2.6673    -4.0860    -0.0442 N.3     
   8 C8             4.0456    -4.5937    -0.0595 C.3     
   9 C9             4.0769    -6.0013     0.5430 C.3     
  10 C10            5.4921    -6.5793     0.3831 C.3     
  11 N11            5.7518    -6.7121    -1.0709 N.am    
  12 C12            5.9380    -5.3114    -1.5207 C.3     
  13 C13            4.5561    -4.6387    -1.5027 C.3     
  14 C14            6.4987    -5.5040     0.8531 C.3     
  15 C15            6.7940    -4.6645    -0.4075 C.3     
  16 C16            5.8059    -7.8388    -1.8086 C.2     
  17 O17            6.0560    -7.7671    -3.1296 O.3     
  18 O18            5.6289    -8.9192    -1.2815 O.2     
  19 C19            6.0996    -9.0206    -3.8612 C.3     
  20 C20            6.3936    -8.7402    -5.3363 C.3     
  21 O21            1.0629     2.2699     0.0041 O.3     
  22 C22            0.6629     3.5480     0.0148 C.2     
  23 C23           -0.6879     3.5807     0.0279 C.2     
  24 C24           -1.1334     2.2496     0.0190 C.2     
  25 H25            2.0116    -0.1656    -0.0172 H       
  26 H26            0.6974    -2.5019     0.8723 H       
  27 H27            0.6812    -2.4923    -0.9076 H       
  28 H28            3.1481    -2.2421    -0.9287 H       
  29 H29            3.1643    -2.2516     0.8511 H       
  30 H30            2.1532    -4.4589     0.7399 H       
  31 H31            4.6821    -3.9330     0.5291 H       
  32 H32            3.8204    -5.9513     1.6012 H       
  33 H33            3.3616    -6.6375     0.0218 H       
  34 H34            5.6107    -7.5256     0.9109 H       
  35 H35            6.4098    -5.2529    -2.5016 H       
  36 H36            3.8627    -5.2126    -2.1175 H       
  37 H37            4.6388    -3.6242    -1.8926 H       
  38 H38            6.0537    -4.8807     1.6287 H       
  39 H39            7.4119    -5.9731     1.2193 H       
  40 H40            7.8525    -4.7205    -0.6616 H       
  41 H41            6.4943    -3.6280    -0.2522 H       
  42 H42            6.8841    -9.6550    -3.4486 H       
  43 H43            5.1384    -9.5269    -3.7721 H       
  44 H44            6.4263    -9.6812    -5.8855 H       
  45 H45            5.6091    -8.1058    -5.7489 H       
  46 H46            7.3547    -8.2339    -5.4253 H       
  47 H47            1.3129     4.4105     0.0135 H       
  48 H48           -1.3082     4.4647     0.0391 H       
  49 H49           -2.1597     1.9132     0.0251 H       
@<TRIPOS>BOND
   1    1    2 1
   2    1   21 1
   3    1   24 2
   4    2    3 am
   5    2    4 2
   6    3    5 1
   7    3   25 1
   8    5    6 1
   9    5   26 1
  10    5   27 1
  11    6    7 1
  12    6   28 1
  13    6   29 1
  14    7    8 1
  15    7   30 1
  16    8    9 1
  17    8   13 1
  18    8   31 1
  19    9   10 1
  20    9   32 1
  21    9   33 1
  22   10   11 1
  23   10   14 1
  24   10   34 1
  25   11   12 1
  26   11   16 am
  27   12   13 1
  28   12   15 1
  29   12   35 1
  30   13   36 1
  31   13   37 1
  32   14   15 1
  33   14   38 1
  34   14   39 1
  35   15   40 1
  36   15   41 1
  37   16   17 1
  38   16   18 2
  39   17   19 1
  40   19   20 1
  41   19   42 1
  42   19   43 1
  43   20   44 1
  44   20   45 1
  45   20   46 1
  46   21   22 1
  47   22   23 2
  48   22   47 1
  49   23   24 1
  50   23   48 1
  51   24   49 1

#	End of record

