#	Name: ASD01910088
#	Creating user name:	WinNT
#	Creation time:	15. 06. 2019 19:55

#	Modifying user name:	WinNT
#	Modification time:	15. 06. 2019 19:55

#	Program:	/corina/corina34_cracker 3.40 0067  02.08.2006

@<TRIPOS>MOLECULE
ASD01910088
  22   23    0    0    0
SMALL
NO_CHARGES


@<TRIPOS>ATOM
   1 C1            -0.0173     1.4278     0.0099 C.2     
   2 C2             0.0021    -0.0041     0.0020 C.1     
   3 C3             0.0180    -1.1779    -0.0044 C.1     
   4 C4             0.0374    -2.6098    -0.0123 C.ar    
   5 C5            -1.1557    -3.3369    -0.0048 C.ar    
   6 N6            -1.1369    -4.6535    -0.0120 N.ar    
   7 C7            -0.0071    -5.3344    -0.0264 C.ar    
   8 C8             1.2169    -4.6889    -0.0342 C.ar    
   9 C9             1.2537    -3.3063    -0.0335 C.ar    
  10 C10            1.1069     2.1812     0.0032 C.2     
  11 S11            0.6220     3.8748     0.0158 S.3     
  12 C12           -1.0248     3.4184     0.0288 C.2     
  13 N13           -1.1400     2.1366     0.0187 N.2     
  14 C14           -2.1821     4.3835     0.0448 C.3     
  15 H15           -2.1010    -2.8148     0.0073 H       
  16 H16           -0.0379    -6.4139    -0.0319 H       
  17 H17            2.1341    -5.2590    -0.0453 H       
  18 H18            2.1951    -2.7771    -0.0394 H       
  19 H19            2.1211     1.8101    -0.0076 H       
  20 H20           -1.8030     5.4054     0.0464 H       
  21 H21           -2.7988     4.2260    -0.8401 H       
  22 H22           -2.7816     4.2169     0.9398 H       
@<TRIPOS>BOND
   1    1    2 1
   2    1   10 2
   3    1   13 1
   4    2    3 3
   5    3    4 1
   6    4    5 ar
   7    4    9 ar
   8    5    6 ar
   9    5   15 1
  10    6    7 ar
  11    7    8 ar
  12    7   16 1
  13    8    9 ar
  14    8   17 1
  15    9   18 1
  16   10   11 1
  17   10   19 1
  18   11   12 1
  19   12   13 2
  20   12   14 1
  21   14   20 1
  22   14   21 1
  23   14   22 1

#	End of record

