#	Name: ASD01900972
#	Creating user name:	WinNT
#	Creation time:	15. 06. 2019 19:52

#	Modifying user name:	WinNT
#	Modification time:	15. 06. 2019 19:52

#	Program:	/corina/corina34_cracker 3.40 0067  02.08.2006

@<TRIPOS>MOLECULE
ASD01900972
  59   63    0    0    0
SMALL
NO_CHARGES


@<TRIPOS>ATOM
   1 C1             3.7434     0.5398     0.8905 C.ar    
   2 C2             4.3903    -0.6631     0.8362 C.ar    
   3 C3             5.7383    -0.7277     0.4692 C.ar    
   4 C4             6.4389     0.4392     0.1620 C.ar    
   5 C5             5.7887     1.6584     0.2221 C.ar    
   6 C6             4.4287     1.7122     0.5776 C.ar    
   7 N7             6.4468     2.8520    -0.0544 N.pl3   
   8 C8             5.6747     3.9818    -0.5839 C.3     
   9 N9             4.4056     4.1097     0.1328 N.am    
  10 C10            3.7643     3.0281     0.6178 C.2     
  11 C11            3.8473     5.3802     0.3197 C.ar    
  12 C12            4.3496     6.2219     1.3034 C.ar    
  13 C13            3.7988     7.4748     1.4868 C.ar    
  14 C14            2.7436     7.8925     0.6890 C.ar    
  15 C15            2.2409     7.0521    -0.2936 C.ar    
  16 C16            2.7947     5.8013    -0.4823 C.ar    
  17 O17            2.6464     3.1362     1.0840 O.2     
  18 O18            2.2015     9.1262     0.8704 O.3     
  19 C19            6.4868     5.2696    -0.4160 C.3     
  20 C20            5.4001     3.7534    -2.0729 C.3     
  21 C21            4.6586     4.9653    -2.6417 C.3     
  22 N22            5.4742     6.1721    -2.4554 N.3     
  23 C23            5.7124     6.4376    -1.0309 C.3     
  24 C24            4.8553     7.3321    -3.1107 C.3     
  25 C25            5.6633     8.5685    -2.8114 C.ar    
  26 C26            6.7105     8.9264    -3.6401 C.ar    
  27 C27            7.4530    10.0598    -3.3677 C.ar    
  28 C28            7.1485    10.8380    -2.2643 C.ar    
  29 C29            6.0983    10.4791    -1.4332 C.ar    
  30 C30            5.3531     9.3465    -1.7120 C.ar    
  31 C31            1.1260     9.4959     0.0051 C.3     
  32 F32            5.7992    11.2371    -0.3557 F       
  33 C33            6.4017    -1.9953     0.4088 C.1     
  34 F34            7.8741    11.9458    -1.9971 F       
  35 F35            0.0511     8.6213     0.1973 F       
  36 F36            0.7214    10.8031     0.2963 F       
  37 F37            1.5526     9.4252    -1.3254 F       
  38 N38            6.9279    -3.0009     0.3609 N.1     
  39 H39            2.7013     0.5812     1.1711 H       
  40 H40            3.8567    -1.5702     1.0789 H       
  41 H41            7.4803     0.3908    -0.1199 H       
  42 H42            7.4007     2.9361     0.1001 H       
  43 H43            5.1706     5.8965     1.9251 H       
  44 H44            4.1894     8.1295     2.2518 H       
  45 H45            1.4190     7.3777    -0.9139 H       
  46 H46            2.4062     5.1488    -1.2502 H       
  47 H47            6.6517     5.4602     0.6445 H       
  48 H48            7.4468     5.1631    -0.9211 H       
  49 H49            6.3445     3.6237    -2.6015 H       
  50 H50            4.7872     2.8607    -2.1972 H       
  51 H51            4.4745     4.8121    -3.7050 H       
  52 H52            3.7079     5.0859    -2.1224 H       
  53 H53            4.7574     6.5505    -0.5178 H       
  54 H54            6.2925     7.3542    -0.9243 H       
  55 H55            4.8270     7.1685    -4.1880 H       
  56 H56            3.8400     7.4621    -2.7361 H       
  57 H57            6.9488     8.3194    -4.5011 H       
  58 H58            8.2710    10.3381    -4.0156 H       
  59 H59            4.5318     9.0684    -1.0681 H       
@<TRIPOS>BOND
   1    1    2 ar
   2    1    6 ar
   3    1   39 1
   4    2    3 ar
   5    2   40 1
   6    3    4 ar
   7    3   33 1
   8    4    5 ar
   9    4   41 1
  10    5    7 1
  11    5    6 ar
  12    6   10 1
  13    7    8 1
  14    7   42 1
  15    8    9 1
  16    8   20 1
  17    8   19 1
  18    9   10 am
  19    9   11 1
  20   10   17 2
  21   11   12 ar
  22   11   16 ar
  23   12   13 ar
  24   12   43 1
  25   13   14 ar
  26   13   44 1
  27   14   15 ar
  28   14   18 1
  29   15   16 ar
  30   15   45 1
  31   16   46 1
  32   18   31 1
  33   19   23 1
  34   19   47 1
  35   19   48 1
  36   20   21 1
  37   20   49 1
  38   20   50 1
  39   21   22 1
  40   21   51 1
  41   21   52 1
  42   22   23 1
  43   22   24 1
  44   23   53 1
  45   23   54 1
  46   24   25 1
  47   24   55 1
  48   24   56 1
  49   25   26 ar
  50   25   30 ar
  51   26   27 ar
  52   26   57 1
  53   27   28 ar
  54   27   58 1
  55   28   29 ar
  56   28   34 1
  57   29   30 ar
  58   29   32 1
  59   30   59 1
  60   31   35 1
  61   31   36 1
  62   31   37 1
  63   33   38 3

#	End of record

