#	Name: ASD01028139
#	Creating user name:	WinNT
#	Creation time:	15. 06. 2019 18:56

#	Modifying user name:	WinNT
#	Modification time:	15. 06. 2019 18:56

#	Program:	/corina/corina34_cracker 3.40 0067  02.08.2006

@<TRIPOS>MOLECULE
ASD01028139
  77   81    0    0    0
SMALL
NO_CHARGES


@<TRIPOS>ATOM
   1 C1             1.9538     1.7426    -1.0419 C.3     
   2 C2             2.6201     4.1337    -0.7572 C.3     
   3 C3             3.1358     2.6969    -0.8603 C.3     
   4 N4             3.3084     6.4637    -0.4770 N.am    
   5 N5             0.7441     8.5120    -0.8222 N.pl3   
   6 C6             0.6749     7.5956    -1.8786 C.ar    
   7 C7             1.8282     6.9692    -2.3324 C.ar    
   8 C8             3.1550     7.2755    -1.6868 C.3     
   9 C9            -0.5500     7.3071    -2.4714 C.ar    
  10 C10           -0.6127     6.3961    -3.5203 C.ar    
  11 C11            0.5452     5.7798    -3.9701 C.ar    
  12 C12            1.7601     6.0650    -3.3748 C.ar    
  13 O13            2.1043    11.8245     2.7668 O.3     
  14 C14            1.0510    10.9812     2.5986 C.ar    
  15 C15            0.9844    10.1979     1.4811 C.ar    
  16 C16           -0.0993     9.3295     1.3069 C.ar    
  17 C17           -0.2164     8.4966     0.1684 C.ar    
  18 N18           -1.2745     7.7012     0.0789 N.ar    
  19 O19           -1.8099     7.7702    -2.2185 O.3     
  20 C20           -2.5818     7.4415    -3.3888 C.3     
  21 O21           -1.9115     6.2861    -3.9263 O.3     
  22 C22            0.0480    10.9214     3.5761 C.ar    
  23 C23           -1.0285    10.0746     3.4284 C.ar    
  24 C24           -1.1196     9.2671     2.2884 C.ar    
  25 N25           -2.1476     8.4254     2.0973 N.ar    
  26 C26           -2.2033     7.6769     1.0215 C.ar    
  27 O27            0.1387    11.7064     4.6808 O.3     
  28 C28            3.8022     5.0880    -0.5756 C.3     
  29 C29            2.9953     6.9826     0.7269 C.2     
  30 C30            2.4695     0.3058    -1.1450 C.3     
  31 Cl31           1.0765    -0.8188    -1.3590 Cl      
  32 O32            3.0290     6.2042     1.8249 O.3     
  33 O33            2.6825     8.1530     0.8213 O.2     
  34 C34            2.6798     6.8300     3.0876 C.3     
  35 C35            2.7730     5.8125     4.1953 C.ar    
  36 C36            3.9637     5.6387     4.8757 C.ar    
  37 C37            4.0493     4.7053     5.8918 C.ar    
  38 C38            2.9440     3.9461     6.2278 C.ar    
  39 C39            1.7531     4.1205     5.5480 C.ar    
  40 C40            1.6663     5.0569     4.5348 C.ar    
  41 C41            1.9418    13.0921     2.3558 C.2     
  42 C42           -0.9146    11.6001     5.6406 C.3     
  43 O43            0.8663    13.4615     1.9473 O.2     
  44 C44            3.1006    14.0543     2.4039 C.3     
  45 H45            1.2835     1.8276    -0.1866 H       
  46 H46            1.4146     2.0013    -1.9532 H       
  47 H47            2.0810     4.3924    -1.6685 H       
  48 H48            1.9498     4.2187     0.0981 H       
  49 H49            3.6750     2.4382     0.0510 H       
  50 H50            3.8061     2.6119    -1.7156 H       
  51 H51            1.4671     9.1575    -0.7867 H       
  52 H52            3.1953     8.3323    -1.4228 H       
  53 H53            3.9603     7.0442    -2.3841 H       
  54 H54            0.4973     5.0720    -4.7844 H       
  55 H55            2.6594     5.5828    -3.7288 H       
  56 H56            1.7640    10.2489     0.7354 H       
  57 H57           -3.6078     7.1962    -3.1146 H       
  58 H58           -2.5615     8.2635    -4.1044 H       
  59 H59           -1.7969    10.0345     4.1863 H       
  60 H60           -3.0445     7.0107     0.8996 H       
  61 H61            4.3414     4.8292     0.3357 H       
  62 H62            4.4725     5.0030    -1.4309 H       
  63 H63            3.1398     0.2208    -2.0003 H       
  64 H64            3.0087     0.0471    -0.2337 H       
  65 H65            3.3683     7.6506     3.2891 H       
  66 H66            1.6615     7.2152     3.0329 H       
  67 H67            4.8272     6.2319     4.6133 H       
  68 H68            4.9797     4.5690     6.4229 H       
  69 H69            3.0111     3.2163     7.0211 H       
  70 H70            0.8897     3.5271     5.8102 H       
  71 H71            0.7359     5.1933     4.0037 H       
  72 H72           -0.7194    12.2786     6.4710 H       
  73 H73           -1.8622    11.8639     5.1709 H       
  74 H74           -0.9657    10.5766     6.0121 H       
  75 H75            3.9800    13.5446     2.7978 H       
  76 H76            3.3119    14.4191     1.3987 H       
  77 H77            2.8482    14.8950     3.0500 H       
@<TRIPOS>BOND
   1    1   30 1
   2    1    3 1
   3    1   45 1
   4    1   46 1
   5    2    3 1
   6    2   28 1
   7    2   47 1
   8    2   48 1
   9    3   49 1
  10    3   50 1
  11    4   28 1
  12    4   29 am
  13    4    8 1
  14    5    6 1
  15    5   17 1
  16    5   51 1
  17    6    7 ar
  18    6    9 ar
  19    7    8 1
  20    7   12 ar
  21    8   52 1
  22    8   53 1
  23    9   10 ar
  24    9   19 1
  25   10   11 ar
  26   10   21 1
  27   11   12 ar
  28   11   54 1
  29   12   55 1
  30   13   14 1
  31   13   41 1
  32   14   15 ar
  33   14   22 ar
  34   15   16 ar
  35   15   56 1
  36   16   17 ar
  37   16   24 ar
  38   17   18 ar
  39   18   26 ar
  40   19   20 1
  41   20   21 1
  42   20   57 1
  43   20   58 1
  44   22   23 ar
  45   22   27 1
  46   23   24 ar
  47   23   59 1
  48   24   25 ar
  49   25   26 ar
  50   26   60 1
  51   27   42 1
  52   28   61 1
  53   28   62 1
  54   29   32 1
  55   29   33 2
  56   30   31 1
  57   30   63 1
  58   30   64 1
  59   32   34 1
  60   34   35 1
  61   34   65 1
  62   34   66 1
  63   35   36 ar
  64   35   40 ar
  65   36   37 ar
  66   36   67 1
  67   37   38 ar
  68   37   68 1
  69   38   39 ar
  70   38   69 1
  71   39   40 ar
  72   39   70 1
  73   40   71 1
  74   41   43 2
  75   41   44 1
  76   42   72 1
  77   42   73 1
  78   42   74 1
  79   44   75 1
  80   44   76 1
  81   44   77 1

#	End of record

