#	Name: ASD01811648
#	Creating user name:	WinNT
#	Creation time:	15. 06. 2019 19:27

#	Modifying user name:	WinNT
#	Modification time:	15. 06. 2019 19:27

#	Program:	/corina/corina34_cracker 3.40 0067  02.08.2006

@<TRIPOS>MOLECULE
ASD01811648
  60   64    0    0    0
SMALL
NO_CHARGES


@<TRIPOS>ATOM
   1 C1             8.6644    -3.8647    -0.3682 C.ar    
   2 C2             8.6629    -3.9771    -1.7480 C.ar    
   3 C3             8.2547    -2.9085    -2.5246 C.ar    
   4 C4             7.8492    -1.7302    -1.9322 C.ar    
   5 C5             7.8479    -1.6095    -0.5442 C.ar    
   6 C6             8.2599    -2.6906     0.2252 C.ar    
   7 N7             7.4884    -0.5412     0.2783 N.am    
   8 C8             7.6323    -0.8322     1.5822 C.2     
   9 C9             8.1469    -2.2534     1.6676 C.3     
  10 C10            7.0091     0.7495    -0.2223 C.3     
  11 O11            7.3954    -0.0945     2.5153 O.2     
  12 C12            5.6046     1.0536     0.3386 C.3     
  13 C13            5.7706     2.3555     1.1516 C.3     
  14 N14            6.9666     3.0132     0.5649 N.3     
  15 C15            7.9055     1.8932     0.2990 C.3     
  16 C16            7.5512     3.9782     1.5056 C.3     
  17 C17            6.5691     5.1295     1.7314 C.3     
  18 C18            7.1221     6.0671     2.8087 C.3     
  19 C19            6.2042     7.2951     2.9180 C.3     
  20 N20            6.2752     8.0146     1.6232 N.am    
  21 C21            5.5136     7.1415     0.6975 C.3     
  22 C22            6.3800     5.9020     0.4227 C.3     
  23 C23            6.8868     9.1846     1.3521 C.2     
  24 O24            6.8468     9.6921     0.1057 O.3     
  25 O25            7.4743     9.7813     2.2326 O.2     
  26 C26            7.5273    10.9559    -0.1135 C.3     
  27 C27            7.3738    11.3704    -1.5783 C.3     
  28 C28            4.7448     6.7901     2.9936 C.3     
  29 C29            4.2876     6.6885     1.5233 C.3     
  30 H30            8.9784    -4.6987     0.2419 H       
  31 H31            8.9801    -4.8970    -2.2166 H       
  32 H32            8.2537    -2.9965    -3.6010 H       
  33 H33            7.5324    -0.8997    -2.5457 H       
  34 H34            7.4378    -2.8843     2.2034 H       
  35 H35            9.1232    -2.2781     2.1517 H       
  36 H36            6.9895     0.7485    -1.3121 H       
  37 H37            4.8960     1.2037    -0.4759 H       
  38 H38            5.2719     0.2426     0.9863 H       
  39 H39            4.8924     2.9905     1.0359 H       
  40 H40            5.9400     2.1275     2.2039 H       
  41 H41            8.4090     1.5928     1.2179 H       
  42 H42            8.6347     2.1801    -0.4587 H       
  43 H43            7.7546     3.4827     2.4549 H       
  44 H44            8.4813     4.3696     1.0935 H       
  45 H45            5.6093     4.7288     2.0573 H       
  46 H46            7.1510     5.5465     3.7660 H       
  47 H47            8.1275     6.3861     2.5341 H       
  48 H48            6.4722     7.9338     3.7595 H       
  49 H49            5.2346     7.6586    -0.2206 H       
  50 H50            7.3515     6.2134     0.0389 H       
  51 H51            5.8836     5.2646    -0.3091 H       
  52 H52            7.0895    11.7204     0.5282 H       
  53 H53            8.5854    10.8447     0.1236 H       
  54 H54            7.8846    12.3191    -1.7429 H       
  55 H55            7.8116    10.6058    -2.2201 H       
  56 H56            6.3157    11.4816    -1.8154 H       
  57 H57            4.7060     5.8113     3.4717 H       
  58 H58            4.1239     7.5033     3.5358 H       
  59 H59            3.4417     7.3517     1.3420 H       
  60 H60            4.0238     5.6597     1.2780 H       
@<TRIPOS>BOND
   1    1    2 ar
   2    1    6 ar
   3    1   30 1
   4    2    3 ar
   5    2   31 1
   6    3    4 ar
   7    3   32 1
   8    4    5 ar
   9    4   33 1
  10    5    7 1
  11    5    6 ar
  12    6    9 1
  13    7    8 am
  14    7   10 1
  15    8    9 1
  16    8   11 2
  17    9   34 1
  18    9   35 1
  19   10   12 1
  20   10   15 1
  21   10   36 1
  22   12   13 1
  23   12   37 1
  24   12   38 1
  25   13   14 1
  26   13   39 1
  27   13   40 1
  28   14   15 1
  29   14   16 1
  30   15   41 1
  31   15   42 1
  32   16   17 1
  33   16   43 1
  34   16   44 1
  35   17   18 1
  36   17   22 1
  37   17   45 1
  38   18   19 1
  39   18   46 1
  40   18   47 1
  41   19   20 1
  42   19   28 1
  43   19   48 1
  44   20   21 1
  45   20   23 am
  46   21   22 1
  47   21   29 1
  48   21   49 1
  49   22   50 1
  50   22   51 1
  51   23   24 1
  52   23   25 2
  53   24   26 1
  54   26   27 1
  55   26   52 1
  56   26   53 1
  57   27   54 1
  58   27   55 1
  59   27   56 1
  60   28   29 1
  61   28   57 1
  62   28   58 1
  63   29   59 1
  64   29   60 1

#	End of record

