#	Name: ASD01180131
#	Creating user name:	WinNT
#	Creation time:	15. 06. 2019 19:06

#	Modifying user name:	WinNT
#	Modification time:	15. 06. 2019 19:06

#	Program:	/corina/corina34_cracker 3.40 0067  02.08.2006

@<TRIPOS>MOLECULE
ASD01180131
  60   63    0    0    0
SMALL
NO_CHARGES


@<TRIPOS>ATOM
   1 C1            -0.0180     1.4730     0.0101 C.2     
   2 C2             0.0021    -0.0041     0.0020 C.ar    
   3 C3             1.2188    -0.6888    -0.0133 C.ar    
   4 C4             1.2303    -2.0682    -0.0203 C.ar    
   5 C5             0.0396    -2.7731    -0.0127 C.ar    
   6 C6            -1.1697    -2.1009     0.0020 C.ar    
   7 C7            -1.1956    -0.7217     0.0154 C.ar    
   8 O8             1.0256     2.0946     0.0035 O.2     
   9 O9            -1.1936     2.1307     0.0193 O.3     
  10 C10            0.0601    -4.2800    -0.0210 C.3     
  11 N11           -0.9827    -4.7874     0.8742 N.pl3   
  12 N12            0.2066    -6.7728     1.1662 N.ar    
  13 C13           -0.8568    -6.0463     1.4421 C.ar    
  14 C14           -1.8647    -6.5158     2.2971 C.ar    
  15 C15           -1.7544    -7.7501     2.8625 C.ar    
  16 C16           -0.6134    -8.5228     2.5631 C.ar    
  17 C17           -0.4369    -9.8026     3.1103 C.ar    
  18 C18            0.6777   -10.5212     2.7979 C.ar    
  19 C19            1.6455   -10.0016     1.9421 C.ar    
  20 C20            1.5057    -8.7630     1.3937 C.ar    
  21 C21            0.3694    -7.9924     1.6921 C.ar    
  22 C22           -3.0672    -5.6561     2.5900 C.3     
  23 C23           -0.1970    -4.7857    -1.4419 C.3     
  24 C24           -0.1966    -6.3190    -1.5595 C.3     
  25 C25           -1.3833    -6.1667    -2.5256 C.3     
  26 C26           -1.6874    -4.8359    -1.8177 C.3     
  27 C27           -0.9656    -6.0014    -3.9882 C.3     
  28 C28           -2.4704    -7.2259    -2.3328 C.3     
  29 C29           -1.1373     3.5816     0.0269 C.3     
  30 C30           -2.5589     4.1471     0.0367 C.3     
  31 H31            2.1488    -0.1398    -0.0199 H       
  32 H32            2.1707    -2.5992    -0.0321 H       
  33 H33           -2.0953    -2.6572     0.0071 H       
  34 H34           -2.1401    -0.1983     0.0318 H       
  35 H35            1.0339    -4.6320     0.3193 H       
  36 H36           -1.7613    -4.2429     1.0696 H       
  37 H37           -2.5208    -8.1270     3.5234 H       
  38 H38           -1.1803   -10.2158     3.7758 H       
  39 H39            0.8125   -11.5062     3.2197 H       
  40 H40            2.5209   -10.5900     1.7099 H       
  41 H41            2.2656    -8.3743     0.7321 H       
  42 H42           -3.8473    -5.8605     1.8567 H       
  43 H43           -3.4399    -5.8810     3.5893 H       
  44 H44           -2.7841    -4.6049     2.5359 H       
  45 H45            0.4260    -4.2905    -2.1867 H       
  46 H46            0.7009    -6.7206    -2.0302 H       
  47 H47           -0.4525    -6.8283    -0.6304 H       
  48 H48           -2.3509    -4.9397    -0.9591 H       
  49 H49           -1.9935    -4.0401    -2.4967 H       
  50 H50           -0.3983    -6.8766    -4.3052 H       
  51 H51           -1.8546    -5.8996    -4.6107 H       
  52 H52           -0.3463    -5.1103    -4.0907 H       
  53 H53           -2.8658    -7.1604    -1.3192 H       
  54 H54           -3.2749    -7.0553    -3.0483 H       
  55 H55           -2.0451    -8.2166    -2.4937 H       
  56 H56           -0.6055     3.9199     0.9162 H       
  57 H57           -0.6140     3.9295    -0.8637 H       
  58 H58           -3.0822     3.7991     0.9273 H       
  59 H59           -2.5166     5.2362     0.0424 H       
  60 H60           -3.0907     3.8088    -0.8526 H       
@<TRIPOS>BOND
   1    1    2 1
   2    1    8 2
   3    1    9 1
   4    2    3 ar
   5    2    7 ar
   6    3    4 ar
   7    3   31 1
   8    4    5 ar
   9    4   32 1
  10    5    6 ar
  11    5   10 1
  12    6    7 ar
  13    6   33 1
  14    7   34 1
  15    9   29 1
  16   10   11 1
  17   10   23 1
  18   10   35 1
  19   11   13 1
  20   11   36 1
  21   12   13 ar
  22   12   21 ar
  23   13   14 ar
  24   14   15 ar
  25   14   22 1
  26   15   16 ar
  27   15   37 1
  28   16   17 ar
  29   16   21 ar
  30   17   18 ar
  31   17   38 1
  32   18   19 ar
  33   18   39 1
  34   19   20 ar
  35   19   40 1
  36   20   21 ar
  37   20   41 1
  38   22   42 1
  39   22   43 1
  40   22   44 1
  41   23   24 1
  42   23   26 1
  43   23   45 1
  44   24   25 1
  45   24   46 1
  46   24   47 1
  47   25   26 1
  48   25   27 1
  49   25   28 1
  50   26   48 1
  51   26   49 1
  52   27   50 1
  53   27   51 1
  54   27   52 1
  55   28   53 1
  56   28   54 1
  57   28   55 1
  58   29   30 1
  59   29   56 1
  60   29   57 1
  61   30   58 1
  62   30   59 1
  63   30   60 1

#	End of record

