#	Name: ASD01811256
#	Creating user name:	WinNT
#	Creation time:	15. 06. 2019 19:26

#	Modifying user name:	WinNT
#	Modification time:	15. 06. 2019 19:26

#	Program:	/corina/corina34_cracker 3.40 0067  02.08.2006

@<TRIPOS>MOLECULE
ASD01811256
  15   15    0    0    0
SMALL
NO_CHARGES


@<TRIPOS>ATOM
   1 C1            -0.0143     1.2036     0.0087 C.2     
   2 O2             0.0021    -0.0041     0.0020 O.2     
   3 O3            -2.4283     1.0032     0.0766 O.3     
   4 C4            -1.3294     1.9392     0.0314 C.3     
   5 C5            -1.4610     2.7654     1.3301 C.3     
   6 C6            -2.9554     2.6430     1.7030 C.3     
   7 C7            -3.5499     1.7574     0.5856 C.3     
   8 Cl8            1.4771     2.0919    -0.0008 Cl      
   9 H9            -1.4181     2.5867    -0.8409 H       
  10 H10           -0.8353     2.3432     2.1164 H       
  11 H11           -1.1967     3.8071     1.1484 H       
  12 H12           -3.0685     2.1603     2.6738 H       
  13 H13           -3.4299     3.6243     1.7058 H       
  14 H14           -3.9791     2.3771    -0.2017 H       
  15 H15           -4.3045     1.0857     0.9949 H       
@<TRIPOS>BOND
   1    1    2 2
   2    1    8 1
   3    1    4 1
   4    3    4 1
   5    3    7 1
   6    4    5 1
   7    4    9 1
   8    5    6 1
   9    5   10 1
  10    5   11 1
  11    6    7 1
  12    6   12 1
  13    6   13 1
  14    7   14 1
  15    7   15 1

#	End of record

