#	Name: ASD01903002
#	Creating user name:	WinNT
#	Creation time:	15. 06. 2019 19:54

#	Modifying user name:	WinNT
#	Modification time:	15. 06. 2019 19:54

#	Program:	/corina/corina34_cracker 3.40 0067  02.08.2006

@<TRIPOS>MOLECULE
ASD01903002
  23   24    0    0    0
SMALL
NO_CHARGES


@<TRIPOS>ATOM
   1 C1             2.1042     1.3936     0.7642 C.ar    
   2 C2             2.1187     0.0129     0.7479 C.ar    
   3 C3             1.2125    -0.6807    -0.0333 C.ar    
   4 C4             0.2888     0.0061    -0.8013 C.ar    
   5 C5             0.2697     1.3884    -0.7894 C.ar    
   6 C6             1.1780     2.0867    -0.0051 C.ar    
   7 N7             1.1612     3.4849     0.0097 N.am    
   8 C8            -0.0101     4.1457    -0.0782 C.2     
   9 O9            -1.0446     3.5296    -0.2557 O.2     
  10 C10           -0.0381     5.6062     0.0399 C.2     
  11 S11            1.3639     6.6359     0.2959 S.3     
  12 C12            0.3925     8.0385     0.2939 C.2     
  13 C13           -0.8963     7.7280     0.1112 C.2     
  14 C14           -1.1575     6.3865    -0.0373 C.2     
  15 Cl15          -0.8465    -0.8686    -1.7809 Cl      
  16 H16            2.8094     1.9342     1.3781 H       
  17 H17            2.8389    -0.5260     1.3456 H       
  18 H18            1.2261    -1.7606    -0.0442 H       
  19 H19           -0.4508     1.9244    -1.3894 H       
  20 H20            1.9926     3.9792     0.0832 H       
  21 H21            0.7676     9.0430     0.4232 H       
  22 H22           -1.6738     8.4768     0.0790 H       
  23 H23           -2.1494     5.9883    -0.1921 H       
@<TRIPOS>BOND
   1    1    2 ar
   2    1    6 ar
   3    1   16 1
   4    2    3 ar
   5    2   17 1
   6    3    4 ar
   7    3   18 1
   8    4    5 ar
   9    4   15 1
  10    5    6 ar
  11    5   19 1
  12    6    7 1
  13    7    8 am
  14    7   20 1
  15    8    9 2
  16    8   10 1
  17   10   11 1
  18   10   14 2
  19   11   12 1
  20   12   13 2
  21   12   21 1
  22   13   14 1
  23   13   22 1
  24   14   23 1

#	End of record

