#	Name: ASD01915221
#	Creating user name:	WinNT
#	Creation time:	15. 06. 2019 20:05

#	Modifying user name:	WinNT
#	Modification time:	15. 06. 2019 20:05

#	Program:	/corina/corina34_cracker 3.40 0067  02.08.2006

@<TRIPOS>MOLECULE
ASD01915221
  33   35    0    0    0
SMALL
NO_CHARGES


@<TRIPOS>ATOM
   1 C1            -0.0169     1.3923     0.0097 C.ar    
   2 C2             0.0021    -0.0041     0.0020 C.ar    
   3 C3            -1.1847    -0.7146     0.0096 C.ar    
   4 C4            -2.3958    -0.0477     0.0252 C.ar    
   5 C5            -2.4270     1.3492     0.0330 C.ar    
   6 C6            -1.2343     2.0700     0.0308 C.ar    
   7 F7            -1.1603    -2.0653     0.0012 F       
   8 C8             1.2523     2.1501     0.0016 C.2     
   9 N9             2.4292     1.4934    -0.0131 N.am    
  10 O10            1.2345     3.3656     0.0083 O.2     
  11 C11            3.6213     2.2052    -0.0207 C.2     
  12 S12            3.7585     3.9609    -0.0119 S.3     
  13 C13            5.5153     3.8242    -0.0288 C.2     
  14 C14            5.8353     2.5177    -0.0391 C.2     
  15 N15            4.8072     1.6808    -0.0296 N.2     
  16 C16            7.2413     2.0460    -0.0546 C.ar    
  17 C17            7.5210     0.6805    -0.0650 C.ar    
  18 C18            8.8313     0.2473    -0.0799 C.ar    
  19 C19            9.8660     1.1654    -0.0841 C.ar    
  20 C20            9.5944     2.5218    -0.0739 C.ar    
  21 C21            8.2879     2.9665    -0.0648 C.ar    
  22 C22           -3.6819     2.0387     0.0487 C.1     
  23 N23           -4.6775     2.5857     0.0611 N.1     
  24 H24            0.9452    -0.5302    -0.0102 H       
  25 H25           -3.3194    -0.6075     0.0310 H       
  26 H26           -1.2536     3.1498     0.0368 H       
  27 H27            2.4433     0.5235    -0.0185 H       
  28 H28            6.2144     4.6473    -0.0308 H       
  29 H29            6.7140    -0.0372    -0.0609 H       
  30 H30            9.0492    -0.8104    -0.0879 H       
  31 H31           10.8899     0.8219    -0.0951 H       
  32 H32           10.4062     3.2341    -0.0773 H       
  33 H33            8.0770     4.0256    -0.0572 H       
@<TRIPOS>BOND
   1    1    2 ar
   2    1    8 1
   3    1    6 ar
   4    2    3 ar
   5    2   24 1
   6    3    4 ar
   7    3    7 1
   8    4    5 ar
   9    4   25 1
  10    5    6 ar
  11    5   22 1
  12    6   26 1
  13    8    9 am
  14    8   10 2
  15    9   11 1
  16    9   27 1
  17   11   12 1
  18   11   15 2
  19   12   13 1
  20   13   14 2
  21   13   28 1
  22   14   15 1
  23   14   16 1
  24   16   17 ar
  25   16   21 ar
  26   17   18 ar
  27   17   29 1
  28   18   19 ar
  29   18   30 1
  30   19   20 ar
  31   19   31 1
  32   20   21 ar
  33   20   32 1
  34   21   33 1
  35   22   23 3

#	End of record

