#	Name: ASD01148656
#	Creating user name:	WinNT
#	Creation time:	15. 06. 2019 19:02

#	Modifying user name:	WinNT
#	Modification time:	15. 06. 2019 19:02

#	Program:	/corina/corina34_cracker 3.40 0067  02.08.2006

@<TRIPOS>MOLECULE
ASD01148656
  53   56    0    0    0
SMALL
NO_CHARGES


@<TRIPOS>ATOM
   1 N1             0.5571     1.6022     0.3789 N.2     
   2 N2             1.2741     0.4687     0.7819 N.pl3   
   3 C3             0.8716    -0.5794    -0.0036 C.2     
   4 C4            -0.0800    -0.0887    -0.8752 C.2     
   5 C5            -0.2439     1.2684    -0.6028 C.2     
   6 C6             1.3608    -1.9641     0.0678 C.2     
   7 O7             2.2870    -2.2446     0.8046 O.2     
   8 N8             0.7829    -2.9225    -0.6831 N.am    
   9 C9             1.2970    -4.2123    -0.6785 C.ar    
  10 C10            0.4591    -5.3019    -0.3868 C.ar    
  11 C11            0.9806    -6.5932    -0.3838 C.ar    
  12 C12            2.3295    -6.7953    -0.6699 C.ar    
  13 C13            3.1556    -5.7029    -0.9588 C.ar    
  14 C14            2.6400    -4.4268    -0.9682 C.ar    
  15 C15            3.5354    -3.2574    -1.2873 C.3     
  16 C16           -0.9678    -5.0788    -0.0845 C.2     
  17 N17           -1.7456    -6.1117     0.2958 N.am    
  18 O18           -1.4419    -3.9631    -0.1784 O.2     
  19 C19           -3.1623    -5.8902     0.5960 C.3     
  20 C20           -3.9732    -5.9473    -0.7002 C.3     
  21 C21           -3.6561    -6.9753     1.5549 C.3     
  22 C22           -5.1213    -6.9184     1.9919 C.3     
  23 C23           -4.6570    -7.9967     1.0107 C.3     
  24 C24            2.8706    -8.1212    -0.6681 C.1     
  25 N25            3.2999    -9.1729    -0.6666 N.1     
  26 C26            2.2284     0.4162     1.8008 C.ar    
  27 C27            2.6518     1.5929     2.4098 C.ar    
  28 C28            3.5982     1.5258     3.4190 C.ar    
  29 C29            4.0889     0.2801     3.7843 C.ar    
  30 C30            3.6227    -0.8471     3.1358 C.ar    
  31 N31            2.7172    -0.7529     2.1815 N.ar    
  32 Cl32           2.0035     3.1243     1.9115 Cl      
  33 Br33          -1.4286     2.4362    -1.5021 Br      
  34 H34           -0.6027    -0.6544    -1.6323 H       
  35 H35            0.0078    -2.7113    -1.2267 H       
  36 H36            0.3421    -7.4349    -0.1600 H       
  37 H37            4.2007    -5.8624    -1.1798 H       
  38 H38            4.0803    -2.9618    -0.3908 H       
  39 H39            4.2434    -3.5436    -2.0651 H       
  40 H40            2.9300    -2.4211    -1.6369 H       
  41 H41           -1.3673    -7.0018     0.3707 H       
  42 H42           -3.2867    -4.9116     1.0596 H       
  43 H43           -3.8488    -6.9259    -1.1638 H       
  44 H44           -5.0273    -5.7825    -0.4768 H       
  45 H45           -3.6214    -5.1742    -1.3833 H       
  46 H46           -2.9264    -7.3250     2.2851 H       
  47 H47           -5.3555    -7.2310     3.0095 H       
  48 H48           -5.7334    -6.1078     1.5962 H       
  49 H49           -4.9636    -7.8955    -0.0304 H       
  50 H50           -4.5857    -9.0187     1.3829 H       
  51 H51            3.9465     2.4224     3.9101 H       
  52 H52            4.8278     0.1928     4.5671 H       
  53 H53            4.0018    -1.8185     3.4167 H       
@<TRIPOS>BOND
   1    1    2 1
   2    1    5 2
   3    2    3 1
   4    2   26 1
   5    3    4 2
   6    3    6 1
   7    4    5 1
   8    4   34 1
   9    5   33 1
  10    6    7 2
  11    6    8 am
  12    8    9 1
  13    8   35 1
  14    9   10 ar
  15    9   14 ar
  16   10   11 ar
  17   10   16 1
  18   11   12 ar
  19   11   36 1
  20   12   13 ar
  21   12   24 1
  22   13   14 ar
  23   13   37 1
  24   14   15 1
  25   15   38 1
  26   15   39 1
  27   15   40 1
  28   16   17 am
  29   16   18 2
  30   17   19 1
  31   17   41 1
  32   19   20 1
  33   19   21 1
  34   19   42 1
  35   20   43 1
  36   20   44 1
  37   20   45 1
  38   21   22 1
  39   21   23 1
  40   21   46 1
  41   22   23 1
  42   22   47 1
  43   22   48 1
  44   23   49 1
  45   23   50 1
  46   24   25 3
  47   26   27 ar
  48   26   31 ar
  49   27   28 ar
  50   27   32 1
  51   28   29 ar
  52   28   51 1
  53   29   30 ar
  54   29   52 1
  55   30   31 ar
  56   30   53 1

#	End of record

