#	Name: ASD01880403
#	Creating user name:	WinNT
#	Creation time:	15. 06. 2019 19:40

#	Modifying user name:	WinNT
#	Modification time:	15. 06. 2019 19:40

#	Program:	/corina/corina34_cracker 3.40 0067  02.08.2006

@<TRIPOS>MOLECULE
ASD01880403
  39   41    0    0    0
SMALL
NO_CHARGES


@<TRIPOS>ATOM
   1 C1            -0.0158     1.3166     0.0093 C.ar    
   2 N2             0.0021    -0.0041     0.0020 N.ar    
   3 C3             1.1445    -0.6746    -0.0125 C.ar    
   4 C4             2.3648     0.0485    -0.0202 C.ar    
   5 C5             2.2891     1.4440    -0.0120 C.ar    
   6 N6             1.0857     2.0309     0.0026 N.ar    
   7 C7             3.7373    -0.4211    -0.0353 C.2     
   8 C8             4.6485     0.5323    -0.0385 C.2     
   9 S9             3.9102     2.1228    -0.0232 S.3     
  10 C10            6.1352     0.2862    -0.0535 C.3     
  11 C11            6.6251     0.2107    -1.5010 C.3     
  12 C12            8.1345    -0.0391    -1.5161 C.3     
  13 N13            1.1474    -2.0578    -0.0195 N.pl3   
  14 C14           -0.1198    -2.7930    -0.0109 C.3     
  15 N15           -0.4951    -3.1353    -1.3850 N.pl3   
  16 C16           -0.1578    -4.3847    -1.9105 C.ar    
  17 C17           -0.5130    -4.7108    -3.2132 C.ar    
  18 C18           -0.1775    -5.9468    -3.7299 C.ar    
  19 C19            0.5111    -6.8594    -2.9518 C.ar    
  20 C20            0.8662    -6.5380    -1.6546 C.ar    
  21 C21            0.5385    -5.3017    -1.1335 C.ar    
  22 H22           -0.9682     1.8258     0.0165 H       
  23 H23            3.9931    -1.4704    -0.0429 H       
  24 H24            6.6437     1.1022     0.4601 H       
  25 H25            6.3530    -0.6539     0.4533 H       
  26 H26            6.1166    -0.6053    -2.0145 H       
  27 H27            6.4073     1.1508    -2.0078 H       
  28 H28            8.6430     0.7768    -1.0026 H       
  29 H29            8.3523    -0.9793    -1.0093 H       
  30 H30            8.4835    -0.0930    -2.5474 H       
  31 H31            1.9884    -2.5410    -0.0301 H       
  32 H32           -0.0059    -3.7064     0.5729 H       
  33 H33           -0.8972    -2.1719     0.4341 H       
  34 H34           -0.9778    -2.4942    -1.9299 H       
  35 H35           -1.0511    -3.9987    -3.8213 H       
  36 H36           -0.4536    -6.2012    -4.7425 H       
  37 H37            0.7719    -7.8255    -3.3582 H       
  38 H38            1.4040    -7.2530    -1.0496 H       
  39 H39            0.8164    -5.0512    -0.1204 H       
@<TRIPOS>BOND
   1    1    2 ar
   2    1    6 ar
   3    1   22 1
   4    2    3 ar
   5    3    4 ar
   6    3   13 1
   7    4    5 ar
   8    4    7 1
   9    5    6 ar
  10    5    9 1
  11    7    8 2
  12    7   23 1
  13    8    9 1
  14    8   10 1
  15   10   11 1
  16   10   24 1
  17   10   25 1
  18   11   12 1
  19   11   26 1
  20   11   27 1
  21   12   28 1
  22   12   29 1
  23   12   30 1
  24   13   14 1
  25   13   31 1
  26   14   15 1
  27   14   32 1
  28   14   33 1
  29   15   16 1
  30   15   34 1
  31   16   17 ar
  32   16   21 ar
  33   17   18 ar
  34   17   35 1
  35   18   19 ar
  36   18   36 1
  37   19   20 ar
  38   19   37 1
  39   20   21 ar
  40   20   38 1
  41   21   39 1

#	End of record

