#	Name: ASD02408385
#	Creating user name:	WinNT
#	Creation time:	15. 06. 2019 20:21

#	Modifying user name:	WinNT
#	Modification time:	15. 06. 2019 20:21

#	Program:	/corina/corina34_cracker 3.40 0067  02.08.2006

@<TRIPOS>MOLECULE
ASD02408385
  22   23    0    0    0
SMALL
NO_CHARGES


@<TRIPOS>ATOM
   1 C1            -0.0004     0.5402     0.6562 C.2     
   2 C2             0.0256     1.3220    -0.5222 C.2     
   3 C3             1.2953     0.0755     0.8655 C.2     
   4 N4             2.0578     0.5580    -0.1416 N.pl3   
   5 N5             1.2452     1.3249    -0.9835 N.2     
   6 C6             3.4301     0.3293    -0.3126 C.ar    
   7 C7             3.9378    -0.9588    -0.2160 C.ar    
   8 C8             5.2908    -1.1813    -0.3855 C.ar    
   9 C9             6.1395    -0.1226    -0.6506 C.ar    
  10 C10            5.6377     1.1625    -0.7471 C.ar    
  11 C11            4.2845     1.3911    -0.5848 C.ar    
  12 N12            1.7215    -0.7274     1.9060 N.pl3   
  13 Cl13           3.6548     3.0043    -0.7059 Cl      
  14 C14           -1.1418     0.2809     1.4812 C.1     
  15 N15           -2.0473     0.0753     2.1357 N.1     
  16 H16           -0.8194     1.8290    -0.9642 H       
  17 H17            3.2759    -1.7865    -0.0083 H       
  18 H18            5.6861    -2.1836    -0.3104 H       
  19 H19            7.1968    -0.2995    -0.7822 H       
  20 H20            6.3033     1.9875    -0.9539 H       
  21 H21            1.0767    -1.0950     2.5305 H       
  22 H22            2.6656    -0.9233     2.0121 H       
@<TRIPOS>BOND
   1    1    2 1
   2    1    3 2
   3    1   14 1
   4    2    5 2
   5    2   16 1
   6    3    4 1
   7    3   12 1
   8    4    5 1
   9    4    6 1
  10    6    7 ar
  11    6   11 ar
  12    7    8 ar
  13    7   17 1
  14    8    9 ar
  15    8   18 1
  16    9   10 ar
  17    9   19 1
  18   10   11 ar
  19   10   20 1
  20   11   13 1
  21   12   21 1
  22   12   22 1
  23   14   15 3

#	End of record

