#	Name: ASD03320011
#	Creating user name:	WinNT
#	Creation time:	15. 06. 2019 20:35

#	Modifying user name:	WinNT
#	Modification time:	15. 06. 2019 20:35

#	Program:	/corina/corina34_cracker 3.40 0067  02.08.2006

@<TRIPOS>MOLECULE
ASD03320011
  38   41    0    0    0
SMALL
NO_CHARGES


@<TRIPOS>ATOM
   1 C1             0.0142     1.4335     0.0822 C.ar    
   2 C2             0.0170     0.0509    -0.0074 C.ar    
   3 C3             1.2103     2.1305     0.1383 C.ar    
   4 C4             2.4100     1.4497     0.1051 C.ar    
   5 C5             2.4175     0.0592     0.0150 C.ar    
   6 C6             1.2121    -0.6379    -0.0411 C.ar    
   7 F7            -1.1581     2.1043     0.1094 F       
   8 C8             3.7052    -0.6772    -0.0214 C.2     
   9 C9             4.0032    -1.8584     0.6864 C.2     
  10 N10            4.7667    -0.3439    -0.7253 N.2     
  11 N11            5.7670    -1.2940    -0.4827 N.pl3   
  12 C12            5.2719    -2.2126     0.3874 C.2     
  13 C13            7.0515    -1.2985    -1.0422 C.ar    
  14 C14            7.4291    -0.2957    -1.9254 C.ar    
  15 C15            7.9516    -2.3024    -0.7102 C.ar    
  16 C16            9.2172    -2.3037    -1.2630 C.ar    
  17 C17            9.5886    -1.3064    -2.1460 C.ar    
  18 C18            8.6962    -0.3026    -2.4749 C.ar    
  19 C19            3.0715    -2.5957     1.6134 C.3     
  20 N20            3.4610    -4.0124     1.7205 N.am    
  21 C21            3.2117    -2.0796     3.0318 C.2     
  22 N22            3.6272    -3.1324     3.7633 N.am    
  23 C23            3.7677    -4.2306     3.0120 C.2     
  24 O24            4.1313    -5.3053     3.4478 O.2     
  25 O25            2.9955    -0.9537     3.4260 O.2     
  26 H26           -0.9176    -0.4885    -0.0505 H       
  27 H27            1.2036     3.2082     0.2077 H       
  28 H28            3.3419     1.9939     0.1485 H       
  29 H29            1.2134    -1.7156    -0.1106 H       
  30 H30            5.7992    -3.0733     0.7717 H       
  31 H31            6.7326     0.4885    -2.1827 H       
  32 H32            7.6623    -3.0812    -0.0201 H       
  33 H33            9.9177    -3.0843    -1.0052 H       
  34 H34           10.5790    -1.3094    -2.5767 H       
  35 H35            8.9892     0.4749    -3.1649 H       
  36 H36            2.0408    -2.5062     1.2703 H       
  37 H37            3.4901    -4.6615     1.0003 H       
  38 H38            3.8031    -3.0982     4.7166 H       
@<TRIPOS>BOND
   1    1    2 ar
   2    1    3 ar
   3    1    7 1
   4    2    6 ar
   5    2   26 1
   6    3    4 ar
   7    3   27 1
   8    4    5 ar
   9    4   28 1
  10    5    6 ar
  11    5    8 1
  12    6   29 1
  13    8    9 1
  14    8   10 2
  15    9   19 1
  16    9   12 2
  17   10   11 1
  18   11   12 1
  19   11   13 1
  20   12   30 1
  21   13   14 ar
  22   13   15 ar
  23   14   18 ar
  24   14   31 1
  25   15   16 ar
  26   15   32 1
  27   16   17 ar
  28   16   33 1
  29   17   18 ar
  30   17   34 1
  31   18   35 1
  32   19   20 1
  33   19   21 1
  34   19   36 1
  35   20   23 am
  36   20   37 1
  37   21   22 am
  38   21   25 2
  39   22   23 am
  40   22   38 1
  41   23   24 2

#	End of record

