#	Name: ASD01918250
#	Creating user name:	WinNT
#	Creation time:	15. 06. 2019 20:11

#	Modifying user name:	WinNT
#	Modification time:	15. 06. 2019 20:11

#	Program:	/corina/corina34_cracker 3.40 0067  02.08.2006

@<TRIPOS>MOLECULE
ASD01918250
  59   64    0    0    0
SMALL
NO_CHARGES


@<TRIPOS>ATOM
   1 C1            -0.0184     1.5028     0.0103 C.3     
   2 C2             0.0021    -0.0041     0.0020 C.ar    
   3 C3             0.0055    -0.6776    -1.2059 C.ar    
   4 C4             0.0248    -2.0615    -1.2098 C.ar    
   5 C5             0.0401    -2.7282     0.0206 C.ar    
   6 C6             0.0354    -1.9749     1.1955 C.ar    
   7 N7             0.0218    -0.6591     1.1472 N.ar    
   8 C8             0.0605    -4.2055     0.0750 C.2     
   9 N9             0.0721    -5.0221    -0.9523 N.2     
  10 N10            0.0892    -6.2368    -0.5284 N.2     
  11 C11            0.0891    -6.2434     0.7754 C.2     
  12 O12            0.0764    -4.9645     1.1889 O.3     
  13 C13            0.1057    -7.4640     1.6590 C.3     
  14 C14           -1.1316    -8.3174     1.3732 C.3     
  15 C15           -1.1147    -9.5567     2.2703 C.3     
  16 C16           -1.1215    -9.1241     3.7378 C.3     
  17 C17            0.1158    -8.2707     4.0237 C.3     
  18 C18            1.3767    -9.0892     3.7390 C.3     
  19 C19            1.3835    -9.5218     2.2715 C.3     
  20 C20            0.1462   -10.3752     1.9857 C.3     
  21 C21            1.3666    -8.2825     1.3744 C.3     
  22 N22            2.5909   -10.3055     1.9990 N.am    
  23 C23            2.8198   -11.4480     2.6763 C.2     
  24 O24            2.0248   -11.8281     3.5130 O.2     
  25 C25            4.0409   -12.2407     2.4006 C.ar    
  26 C26            4.2689   -13.4233     3.0999 C.ar    
  27 C27            5.4158   -14.1542     2.8310 C.ar    
  28 C28            6.2946   -13.6761     1.8720 C.ar    
  29 C29            6.0039   -12.4910     1.2146 C.ar    
  30 C30            6.9564   -11.9671     0.1709 C.3     
  31 N31            4.9057   -11.8204     1.4854 N.ar    
  32 C32            0.0989    -7.0314     3.1266 C.3     
  33 H33            1.0042     1.8801     0.0026 H       
  34 H34           -0.5455     1.8639    -0.8728 H       
  35 H35           -0.5286     1.8543     0.9071 H       
  36 H36           -0.0070    -0.1295    -2.1364 H       
  37 H37            0.0276    -2.6128    -2.1385 H       
  38 H38            0.0470    -2.4755     2.1524 H       
  39 H39           -2.0299    -7.7343     1.5760 H       
  40 H40           -1.1268    -8.6256     0.3277 H       
  41 H41           -1.9962   -10.1647     2.0667 H       
  42 H42           -2.0198    -8.5410     3.9406 H       
  43 H43           -1.1095   -10.0070     4.3769 H       
  44 H44            0.1110    -7.9625     5.0692 H       
  45 H45            2.2582    -8.4812     3.9427 H       
  46 H46            1.3888    -9.9721     4.3782 H       
  47 H47            0.1582   -11.2581     2.6248 H       
  48 H48            0.1510   -10.6834     0.9402 H       
  49 H49            1.3714    -8.5907     0.3289 H       
  50 H50            2.2481    -7.6745     1.5780 H       
  51 H51            3.2255   -10.0022     1.3311 H       
  52 H52            3.5623   -13.7661     3.8413 H       
  53 H53            5.6200   -15.0749     3.3573 H       
  54 H54            7.1973   -14.2215     1.6393 H       
  55 H55            6.6813   -12.3665    -0.8052 H       
  56 H56            6.9050   -10.8786     0.1458 H       
  57 H57            7.9719   -12.2773     0.4173 H       
  58 H58            0.9804    -6.4234     3.3302 H       
  59 H59           -0.7994    -6.4483     3.3293 H       
@<TRIPOS>BOND
   1    1    2 1
   2    1   33 1
   3    1   34 1
   4    1   35 1
   5    2    7 ar
   6    2    3 ar
   7    3    4 ar
   8    3   36 1
   9    4    5 ar
  10    4   37 1
  11    5    6 ar
  12    5    8 1
  13    6    7 ar
  14    6   38 1
  15    8   12 1
  16    8    9 2
  17    9   10 1
  18   10   11 2
  19   11   12 1
  20   11   13 1
  21   13   21 1
  22   13   32 1
  23   13   14 1
  24   14   15 1
  25   14   39 1
  26   14   40 1
  27   15   20 1
  28   15   16 1
  29   15   41 1
  30   16   17 1
  31   16   42 1
  32   16   43 1
  33   17   18 1
  34   17   32 1
  35   17   44 1
  36   18   19 1
  37   18   45 1
  38   18   46 1
  39   19   20 1
  40   19   21 1
  41   19   22 1
  42   20   47 1
  43   20   48 1
  44   21   49 1
  45   21   50 1
  46   22   23 am
  47   22   51 1
  48   23   24 2
  49   23   25 1
  50   25   31 ar
  51   25   26 ar
  52   26   27 ar
  53   26   52 1
  54   27   28 ar
  55   27   53 1
  56   28   29 ar
  57   28   54 1
  58   29   30 1
  59   29   31 ar
  60   30   55 1
  61   30   56 1
  62   30   57 1
  63   32   58 1
  64   32   59 1

#	End of record

