#	Name: ASD04880121
#	Creating user name:	WinNT
#	Creation time:	15. 06. 2019 20:52

#	Modifying user name:	WinNT
#	Modification time:	15. 06. 2019 20:52

#	Program:	/corina/corina34_cracker 3.40 0067  02.08.2006

@<TRIPOS>MOLECULE
ASD04880121
  50   53    0    0    0
SMALL
NO_CHARGES


@<TRIPOS>ATOM
   1 C1            -0.0144     1.2121     0.0087 C.2     
   2 O2            -0.1837     0.0078    -0.0120 O.2     
   3 N3             1.2352     1.7168     0.0259 N.am    
   4 N4             1.5645     3.0684    -0.0532 N.2     
   5 C5             2.8307     3.3046    -0.0169 C.2     
   6 C6             3.5847     1.9995     0.1038 C.3     
   7 C7             2.4742     0.9308     0.1376 C.3     
   8 C8             4.4984     1.7937    -1.1060 C.3     
   9 C9             4.3945     1.9657     1.4015 C.3     
  10 C10            3.4490     4.6412    -0.0830 C.ar    
  11 C11            2.6460     5.7798    -0.1939 C.ar    
  12 C12            3.2308     7.0304    -0.2555 C.ar    
  13 C13            4.6180     7.1542    -0.2070 C.ar    
  14 C14            5.4152     6.0246    -0.0970 C.ar    
  15 C15            4.8385     4.7734    -0.0292 C.ar    
  16 O16            5.1914     8.3852    -0.2682 O.3     
  17 C17            6.6183     8.4398    -0.2134 C.3     
  18 O18            2.4525     8.1403    -0.3638 O.3     
  19 C19            1.0384     7.9393    -0.4085 C.3     
  20 O20           -4.2878     4.8196     0.1614 O.3     
  21 C21           -3.5478     5.9614     0.6317 C.3     
  22 O22           -2.4199     5.3820     1.3138 O.3     
  23 C23           -2.2151     4.1719     0.7151 C.ar    
  24 C24           -3.3666     3.8263     0.0051 C.ar    
  25 C25           -1.1254     3.3243     0.7178 C.ar    
  26 C26           -1.1767     2.1204     0.0089 C.ar    
  27 C27           -2.3323     1.7800    -0.7001 C.ar    
  28 C28           -3.4174     2.6313    -0.6986 C.ar    
  29 Br29          -2.4075     0.1534    -1.6615 Br      
  30 H30            2.4964     0.3814     1.0787 H       
  31 H31            2.5740     0.2499    -0.7077 H       
  32 H32            5.2320     2.5987    -1.1485 H       
  33 H33            5.0133     0.8374    -1.0139 H       
  34 H34            3.9008     1.7982    -2.0176 H       
  35 H35            3.7239     2.0911     2.2516 H       
  36 H36            4.9098     1.0087     1.4834 H       
  37 H37            5.1266     2.7731     1.3941 H       
  38 H38            1.5711     5.6825    -0.2316 H       
  39 H39            6.4899     6.1252    -0.0598 H       
  40 H40            5.4615     3.8958     0.0613 H       
  41 H41            6.9629     8.0025     0.7237 H       
  42 H42            7.0357     7.8804    -1.0506 H       
  43 H43            6.9446     9.4782    -0.2715 H       
  44 H44            0.5370     8.9032    -0.4953 H       
  45 H45            0.7866     7.3198    -1.2692 H       
  46 H46            0.7132     7.4415     0.5050 H       
  47 H47           -3.2151     6.5738    -0.2064 H       
  48 H48           -4.1512     6.5508     1.3221 H       
  49 H49           -0.2343     3.5911     1.2666 H       
  50 H50           -4.3097     2.3669    -1.2465 H       
@<TRIPOS>BOND
   1    1    2 2
   2    1    3 am
   3    1   26 1
   4    3    4 1
   5    3    7 1
   6    4    5 2
   7    5    6 1
   8    5   10 1
   9    6    7 1
  10    6    8 1
  11    6    9 1
  12    7   30 1
  13    7   31 1
  14    8   32 1
  15    8   33 1
  16    8   34 1
  17    9   35 1
  18    9   36 1
  19    9   37 1
  20   10   11 ar
  21   10   15 ar
  22   11   12 ar
  23   11   38 1
  24   12   13 ar
  25   12   18 1
  26   13   14 ar
  27   13   16 1
  28   14   15 ar
  29   14   39 1
  30   15   40 1
  31   16   17 1
  32   17   41 1
  33   17   42 1
  34   17   43 1
  35   18   19 1
  36   19   44 1
  37   19   45 1
  38   19   46 1
  39   20   21 1
  40   20   24 1
  41   21   22 1
  42   21   47 1
  43   21   48 1
  44   22   23 1
  45   23   24 ar
  46   23   25 ar
  47   24   28 ar
  48   25   26 ar
  49   25   49 1
  50   26   27 ar
  51   27   28 ar
  52   27   29 1
  53   28   50 1

#	End of record

