#	Name: ASD05060011
#	Creating user name:	WinNT
#	Creation time:	15. 06. 2019 20:56

#	Modifying user name:	WinNT
#	Modification time:	15. 06. 2019 20:56

#	Program:	/corina/corina34_cracker 3.40 0067  02.08.2006

@<TRIPOS>MOLECULE
ASD05060011
  99   99    0    0    0
SMALL
NO_CHARGES


@<TRIPOS>ATOM
   1 N1            -2.3736     0.8051     1.4342 N.3     
   2 N2            -3.5335     0.6488     0.5714 N.3     
   3 C3            -3.6770     1.7994    -0.3305 C.3     
   4 C4            -3.9177     3.0464     0.4806 C.2     
   5 N5            -3.2996     4.2062     0.0978 N.am    
   6 C6            -3.6011     5.3814     0.9499 C.3     
   7 C7            -2.4815     5.5555     1.9434 C.2     
   8 N8            -2.7566     6.1169     3.1544 N.am    
   9 C9            -1.6143     6.2750     4.0773 C.3     
  10 C10           -1.6121     5.1262     5.0526 C.2     
  11 N11           -0.4163     4.7203     5.5812 N.am    
  12 C12           -0.5099     3.5906     6.5369 C.3     
  13 C13            0.1335     2.3797     5.9116 C.2     
  14 N14           -0.4178     1.1530     6.1298 N.am    
  15 C15            0.2593     0.0075     5.4877 C.3     
  16 C16           -0.6148    -0.5109     4.3748 C.2     
  17 C17           -1.5664     0.4035     3.6906 C.2     
  18 C18           -2.4409    -0.1144     2.5779 C.3     
  19 O19           -1.6390     1.5614     4.0268 O.2     
  20 O20           -0.5418    -1.6687     4.0387 O.2     
  21 O21            1.1266     2.4953     5.2251 O.2     
  22 O22           -2.6465     4.5739     5.3626 O.2     
  23 O23           -1.3542     5.2014     1.6700 O.2     
  24 O24           -4.6438     3.0230     1.4517 O.2     
  25 C25            0.2219     3.9506     7.8314 C.3     
  26 C26           -0.5391     5.0633     8.5550 C.3     
  27 C27           -1.8081     4.4864     9.1857 C.3     
  28 C28            0.3483     5.6600     9.6492 C.3     
  29 C29           -2.3978     1.9651    -1.1533 C.3     
  30 C30           -1.9377     0.5974    -1.6618 C.3     
  31 C31           -0.6460     0.7601    -2.4655 C.3     
  32 C32           -2.6728     2.8857    -2.3440 C.3     
  33 C33           -3.8866    -0.2126     3.0691 C.3     
  34 C34           -3.9954    -1.3237     4.1153 C.3     
  35 C35           -5.4179    -1.3570     4.6777 C.3     
  36 C36           -5.5268    -2.4681     5.7239 C.3     
  37 N37           -6.8925    -2.5001     6.2640 N.3     
  38 C38           -0.3080     6.2734     3.2808 C.3     
  39 C39            0.8245     6.7138     4.1722 C.2     
  40 O40            0.5954     7.0921     5.3015 O.2     
  41 N41            2.0919     6.6872     3.7145 N.am    
  42 C42           -4.8961     6.4982    -0.8459 C.2     
  43 C43           -3.7127     6.6332     0.0773 C.3     
  44 O44           -5.5800     5.5028    -0.8097 O.2     
  45 O45           -5.1902     7.4837    -1.7085 O.3     
  46 C46            2.3920    -0.7427     4.4689 C.2     
  47 C47            1.6035     0.4616     4.9150 C.3     
  48 O48            1.9266    -1.8505     4.5959 O.2     
  49 O49            3.6113    -0.5847     3.9304 O.3     
  50 H50           -1.5175     0.6757     0.9161 H       
  51 H51           -3.4837    -0.2143     0.0513 H       
  52 H52           -4.5208     1.6331    -1.0002 H       
  53 H53           -2.7101     4.2552    -0.6709 H       
  54 H54           -4.5390     5.2175     1.4806 H       
  55 H55           -3.6530     6.3975     3.3967 H       
  56 H56           -1.7113     7.2149     4.6207 H       
  57 H57            0.4270     5.1391     5.3482 H       
  58 H58           -1.5573     3.3787     6.7519 H       
  59 H59           -1.2107     1.0380     6.6767 H       
  60 H60            0.4206    -0.7807     6.2230 H       
  61 H61           -2.0933    -1.1011     2.2719 H       
  62 H62            0.2780     3.0717     8.4736 H       
  63 H63            1.2295     4.2933     7.5959 H       
  64 H64           -0.8095     5.8419     7.8417 H       
  65 H65           -1.5378     3.7078     9.8990 H       
  66 H66           -2.3503     5.2791     9.7012 H       
  67 H67           -2.4404     4.0613     8.4062 H       
  68 H68           -0.2221     6.3924    10.2205 H       
  69 H69            0.6889     4.8661    10.3139 H       
  70 H70            1.2103     6.1465     9.1928 H       
  71 H71           -1.6182     2.4016    -0.5290 H       
  72 H72           -1.7573    -0.0636    -0.8140 H       
  73 H73           -2.7106     0.1679    -2.2992 H       
  74 H74           -0.8623     0.6465    -3.5278 H       
  75 H75           -0.2273     1.7500    -2.2838 H       
  76 H76            0.0718    -0.0001    -2.1575 H       
  77 H77           -3.2592     3.7428    -2.0127 H       
  78 H78           -1.7274     3.2319    -2.7616 H       
  79 H79           -3.2279     2.3384    -3.1058 H       
  80 H80           -4.1841     0.7366     3.5148 H       
  81 H81           -4.5414    -0.4401     2.2279 H       
  82 H82           -3.7654    -2.2830     3.6517 H       
  83 H83           -3.2896    -1.1322     4.9235 H       
  84 H84           -5.6479    -0.3977     5.1413 H       
  85 H85           -6.1238    -1.5485     3.8696 H       
  86 H86           -5.2968    -3.4274     5.2604 H       
  87 H87           -4.8209    -2.2766     6.5321 H       
  88 H88           -6.9901    -3.2263     6.9577 H       
  89 H89           -7.1530    -1.6016     6.6420 H       
  90 H90           -0.1092     5.2675     2.9110 H       
  91 H91           -0.3952     6.9596     2.4384 H       
  92 H92            2.2751     6.3846     2.8113 H       
  93 H93            2.8208     6.9707     4.2883 H       
  94 H94           -3.8459     7.5085     0.7131 H       
  95 H95           -2.8030     6.7474    -0.5122 H       
  96 H96           -5.9587     7.3516    -2.2804 H       
  97 H97            1.4319     1.1195     4.0631 H       
  98 H98            2.1624     0.9982     5.6817 H       
  99 H99            4.0788    -1.3866     3.6593 H       
@<TRIPOS>BOND
   1    1    2 1
   2    1   18 1
   3    1   50 1
   4    2    3 1
   5    2   51 1
   6    3    4 1
   7    3   29 1
   8    3   52 1
   9    4    5 am
  10    4   24 2
  11    5    6 1
  12    5   53 1
  13    6    7 1
  14    6   43 1
  15    6   54 1
  16    7    8 am
  17    7   23 2
  18    8    9 1
  19    8   55 1
  20    9   10 1
  21    9   38 1
  22    9   56 1
  23   10   11 am
  24   10   22 2
  25   11   12 1
  26   11   57 1
  27   12   13 1
  28   12   25 1
  29   12   58 1
  30   13   14 am
  31   13   21 2
  32   14   15 1
  33   14   59 1
  34   15   16 1
  35   15   47 1
  36   15   60 1
  37   16   17 1
  38   16   20 2
  39   17   18 1
  40   17   19 2
  41   18   33 1
  42   18   61 1
  43   25   26 1
  44   25   62 1
  45   25   63 1
  46   26   27 1
  47   26   28 1
  48   26   64 1
  49   27   65 1
  50   27   66 1
  51   27   67 1
  52   28   68 1
  53   28   69 1
  54   28   70 1
  55   29   30 1
  56   29   32 1
  57   29   71 1
  58   30   31 1
  59   30   72 1
  60   30   73 1
  61   31   74 1
  62   31   75 1
  63   31   76 1
  64   32   77 1
  65   32   78 1
  66   32   79 1
  67   33   34 1
  68   33   80 1
  69   33   81 1
  70   34   35 1
  71   34   82 1
  72   34   83 1
  73   35   36 1
  74   35   84 1
  75   35   85 1
  76   36   37 1
  77   36   86 1
  78   36   87 1
  79   37   88 1
  80   37   89 1
  81   38   39 1
  82   38   90 1
  83   38   91 1
  84   39   40 2
  85   39   41 am
  86   41   92 1
  87   41   93 1
  88   42   43 1
  89   42   44 2
  90   42   45 1
  91   43   94 1
  92   43   95 1
  93   45   96 1
  94   46   47 1
  95   46   48 2
  96   46   49 1
  97   47   97 1
  98   47   98 1
  99   49   99 1

#	End of record

