#	Name: ASD09610017
#	Creating user name:	WinNT
#	Creation time:	15. 06. 2019 21:22

#	Modifying user name:	WinNT
#	Modification time:	15. 06. 2019 21:22

#	Program:	/corina/corina34_cracker 3.40 0067  02.08.2006

@<TRIPOS>MOLECULE
ASD09610017
  61   63    0    0    0
SMALL
NO_CHARGES


@<TRIPOS>ATOM
   1 C1             0.6876    -1.5507     0.2768 C.2     
   2 C2             1.4802    -1.8505    -0.9383 C.2     
   3 O3             1.0536    -1.9657     1.3587 O.2     
   4 N4            -0.4365    -0.8130     0.1831 N.am    
   5 C5            -1.2203    -0.5165     1.3848 C.3     
   6 N6             1.1522    -1.3145    -2.0777 N.2     
   7 O7             1.9586    -1.5327    -3.2210 O.3     
   8 C8             1.4804    -0.8851    -4.4017 C.3     
   9 C9             2.6464    -2.7608    -0.8563 C.ar    
  10 C10            2.4634    -4.1063    -0.5374 C.ar    
  11 C11            3.5531    -4.9490    -0.4629 C.ar    
  12 C12            4.8256    -4.4620    -0.7038 C.ar    
  13 C13            5.0135    -3.1286    -1.0205 C.ar    
  14 C14            3.9307    -2.2770    -1.1031 C.ar    
  15 C15            1.0781    -4.6382    -0.2743 C.3     
  16 O16            1.1563    -6.0249     0.0620 O.3     
  17 N17           -0.0984    -6.6243     0.3294 N.2     
  18 C18           -0.1625    -7.8766     0.6459 C.2     
  19 C19            1.0982    -8.6980     0.7299 C.3     
  20 C20           -1.4708    -8.5016     0.9247 C.ar    
  21 C21           -2.6398    -7.7434     0.8476 C.ar    
  22 C22           -3.8631    -8.3366     1.1106 C.ar    
  23 C23           -3.9246    -9.6819     1.4503 C.ar    
  24 C24           -2.7674   -10.4342     1.5271 C.ar    
  25 C25           -1.5434    -9.8547     1.2610 C.ar    
  26 O26           -5.0039    -7.6020     1.0366 O.3     
  27 C27           -5.5093    -7.3344    -0.1908 C.2     
  28 C28           -6.6759    -6.6886    -0.3081 C.2     
  29 C29           -7.5441    -6.5144     0.8714 C.ar    
  30 C30           -8.6723    -5.6940     0.7972 C.ar    
  31 C31           -9.4800    -5.5361     1.9041 C.ar    
  32 C32           -9.1750    -6.1880     3.0859 C.ar    
  33 C33           -8.0591    -7.0022     3.1666 C.ar    
  34 C34           -7.2453    -7.1735     2.0662 C.ar    
  35 F35           -4.8361    -7.7192    -1.2971 F       
  36 H36           -0.7265    -0.4784    -0.6799 H       
  37 H37           -1.5544    -1.4489     1.8399 H       
  38 H38           -0.6027     0.0335     2.0949 H       
  39 H39           -2.0869     0.0864     1.1137 H       
  40 H40            0.4814    -1.2517    -4.6379 H       
  41 H41            1.4424     0.1915    -4.2356 H       
  42 H42            2.1525    -1.1011    -5.2322 H       
  43 H43            3.4127    -5.9910    -0.2158 H       
  44 H44            5.6757    -5.1255    -0.6440 H       
  45 H45            6.0091    -2.7542    -1.2074 H       
  46 H46            4.0782    -1.2370    -1.3545 H       
  47 H47            0.6289    -4.0886     0.5528 H       
  48 H48            0.4658    -4.5149    -1.1676 H       
  49 H49            1.4963    -8.6499     1.7435 H       
  50 H50            0.8743    -9.7342     0.4764 H       
  51 H51            1.8358    -8.3041     0.0308 H       
  52 H52           -2.5905    -6.6972     0.5840 H       
  53 H53           -4.8799   -10.1418     1.6557 H       
  54 H54           -2.8218   -11.4798     1.7918 H       
  55 H55           -0.6418   -10.4466     1.3172 H       
  56 H56           -6.9813    -6.2951    -1.2663 H       
  57 H57           -8.9113    -5.1844    -0.1245 H       
  58 H58          -10.3524    -4.9019     1.8483 H       
  59 H59           -9.8108    -6.0604     3.9496 H       
  60 H60           -7.8271    -7.5079     4.0923 H       
  61 H61           -6.3770    -7.8125     2.1294 H       
@<TRIPOS>BOND
   1    1    2 1
   2    1    3 2
   3    1    4 am
   4    2    6 2
   5    2    9 1
   6    4    5 1
   7    4   36 1
   8    5   37 1
   9    5   38 1
  10    5   39 1
  11    6    7 1
  12    7    8 1
  13    8   40 1
  14    8   41 1
  15    8   42 1
  16    9   10 ar
  17    9   14 ar
  18   10   11 ar
  19   10   15 1
  20   11   12 ar
  21   11   43 1
  22   12   13 ar
  23   12   44 1
  24   13   14 ar
  25   13   45 1
  26   14   46 1
  27   15   16 1
  28   15   47 1
  29   15   48 1
  30   16   17 1
  31   17   18 2
  32   18   19 1
  33   18   20 1
  34   19   49 1
  35   19   50 1
  36   19   51 1
  37   20   21 ar
  38   20   25 ar
  39   21   22 ar
  40   21   52 1
  41   22   23 ar
  42   22   26 1
  43   23   24 ar
  44   23   53 1
  45   24   25 ar
  46   24   54 1
  47   25   55 1
  48   26   27 1
  49   27   28 2
  50   27   35 1
  51   28   29 1
  52   28   56 1
  53   29   30 ar
  54   29   34 ar
  55   30   31 ar
  56   30   57 1
  57   31   32 ar
  58   31   58 1
  59   32   33 ar
  60   32   59 1
  61   33   34 ar
  62   33   60 1
  63   34   61 1

#	End of record

