#	Name: ASD03092472
#	Creating user name:	WinNT
#	Creation time:	15. 06. 2019 20:32

#	Modifying user name:	WinNT
#	Modification time:	15. 06. 2019 20:32

#	Program:	/corina/corina34_cracker 3.40 0067  02.08.2006

@<TRIPOS>MOLECULE
ASD03092472
  58   61    0    0    0
SMALL
NO_CHARGES


@<TRIPOS>ATOM
   1 S1             0.7849     2.4067    -0.3446 S.3     
   2 C2             0.5862     0.7106    -0.3495 C.2     
   3 N3             1.7285     0.1218    -0.2904 N.2     
   4 C4             2.7940     0.9254    -0.2394 C.2     
   5 C5             2.4841     2.2414    -0.2589 C.2     
   6 C6             4.1773     0.4251    -0.1685 C.2     
   7 O7             5.1061     1.2091    -0.1238 O.2     
   8 N8             4.4140    -0.9017    -0.1531 N.am    
   9 C9             3.4744     3.3764    -0.2126 C.3     
  10 C10            5.7900    -1.3995    -0.0826 C.3     
  11 S11            5.7933    -5.3394     0.6063 S.3     
  12 C12            5.7214    -4.9142    -1.0479 C.2     
  13 N13            5.7245    -3.6219    -1.1815 N.2     
  14 C14            5.7795    -2.9064    -0.0792 C.2     
  15 C15            5.8257    -3.6361     1.0551 C.2     
  16 C16            6.8508    -3.0670     4.6229 C.ar    
  17 C17            6.8241    -3.5960     3.3507 C.ar    
  18 C18            5.8914    -3.1015     2.4292 C.ar    
  19 C19            5.0230    -2.0849     2.8488 C.ar    
  20 C20            5.1197    -1.6152     4.1408 C.ar    
  21 N21            6.0139    -2.1092     4.9769 N.ar    
  22 C22            4.1921    -0.5221     4.6054 C.3     
  23 C23            7.8445    -3.5937     5.6260 C.3     
  24 N24            5.6680    -5.8168    -2.0943 N.3     
  25 C25            5.6806    -7.2005    -1.5978 C.3     
  26 C26            5.6807    -8.1640    -2.7876 C.3     
  27 O27            4.5438    -7.8951    -3.6124 O.3     
  28 C28            4.5000    -6.5564    -4.1139 C.3     
  29 C29            4.4879    -5.5767    -2.9375 C.3     
  30 C30            3.2335    -6.3655    -4.9508 C.3     
  31 C31            5.6128    -9.6050    -2.2780 C.3     
  32 H32           -0.3659     0.2029    -0.3952 H       
  33 H33            3.6733    -1.5269    -0.1888 H       
  34 H34            2.9402     4.3260    -0.2418 H       
  35 H35            4.0553     3.3144     0.7076 H       
  36 H36            4.1439     3.3096    -1.0701 H       
  37 H37            6.3505    -1.0420    -0.9464 H       
  38 H38            6.2610    -1.0373     0.8313 H       
  39 H39            7.5119    -4.3791     3.0680 H       
  40 H40            4.2895    -1.6755     2.1701 H       
  41 H41            3.2894    -0.9657     5.0253 H       
  42 H42            4.6903     0.0778     5.3670 H       
  43 H43            3.9258     0.1122     3.7599 H       
  44 H44            8.7670    -3.0169     5.5609 H       
  45 H45            7.4298    -3.5037     6.6300 H       
  46 H46            8.0554    -4.6416     5.4127 H       
  47 H47            6.5755    -7.3636    -0.9973 H       
  48 H48            4.7948    -7.3762    -0.9873 H       
  49 H49            6.5927    -8.0251    -3.3682 H       
  50 H50            5.3776    -6.3708    -4.7331 H       
  51 H51            3.5831    -5.7264    -2.3485 H       
  52 H52            4.5122    -4.5544    -3.3150 H       
  53 H53            2.3566    -6.5495    -4.3300 H       
  54 H54            3.2007    -5.3451    -5.3327 H       
  55 H55            3.2409    -7.0660    -5.7859 H       
  56 H56            4.6996    -9.7431    -1.6992 H       
  57 H57            5.6130   -10.2905    -3.1255 H       
  58 H58            6.4776    -9.8081    -1.6463 H       
@<TRIPOS>BOND
   1    1    2 1
   2    1    5 1
   3    2    3 2
   4    2   32 1
   5    3    4 1
   6    4    5 2
   7    4    6 1
   8    5    9 1
   9    6    7 2
  10    6    8 am
  11    8   10 1
  12    8   33 1
  13    9   34 1
  14    9   35 1
  15    9   36 1
  16   10   14 1
  17   10   37 1
  18   10   38 1
  19   11   12 1
  20   11   15 1
  21   12   13 2
  22   12   24 1
  23   13   14 1
  24   14   15 2
  25   15   18 1
  26   16   17 ar
  27   16   21 ar
  28   16   23 1
  29   17   18 ar
  30   17   39 1
  31   18   19 ar
  32   19   20 ar
  33   19   40 1
  34   20   21 ar
  35   20   22 1
  36   22   41 1
  37   22   42 1
  38   22   43 1
  39   23   44 1
  40   23   45 1
  41   23   46 1
  42   24   25 1
  43   24   29 1
  44   25   26 1
  45   25   47 1
  46   25   48 1
  47   26   27 1
  48   26   31 1
  49   26   49 1
  50   27   28 1
  51   28   29 1
  52   28   30 1
  53   28   50 1
  54   29   51 1
  55   29   52 1
  56   30   53 1
  57   30   54 1
  58   30   55 1
  59   31   56 1
  60   31   57 1
  61   31   58 1

#	End of record

