#	Name: ASD02198137
#	Creating user name:	WinNT
#	Creation time:	15. 06. 2019 20:18

#	Modifying user name:	WinNT
#	Modification time:	15. 06. 2019 20:18

#	Program:	/corina/corina34_cracker 3.40 0067  02.08.2006

@<TRIPOS>MOLECULE
ASD02198137
  59   63    0    0    0
SMALL
NO_CHARGES


@<TRIPOS>ATOM
   1 C1             0.0606     1.8845    -1.2593 C.2     
   2 C2             0.7373     1.0689    -2.1405 C.2     
   3 C3             0.0748     0.2023    -3.0683 C.1     
   4 S4             1.1500     2.7817    -0.3027 S.3     
   5 C5             2.5419     2.0568    -1.0914 C.2     
   6 C6             2.1248     1.1643    -2.0477 C.2     
   7 C7             3.8880     2.3490    -0.7881 C.2     
   8 C8             4.2144     3.4673     0.1179 C.2     
   9 O9             4.7823     1.6774    -1.2747 O.2     
  10 N10            2.9957     0.4319    -2.8408 N.pl3   
  11 N11           -1.3109     1.9678    -1.1679 N.pl3   
  12 N12           -0.4508    -0.4851    -3.8043 N.1     
  13 C13            4.4655     3.4303     1.4652 C.2     
  14 C14           -1.8960     2.7555    -0.1807 C.ar    
  15 C15           -3.1166     3.3796    -0.4227 C.ar    
  16 O16            4.7113     4.6885     1.8416 O.3     
  17 N17            4.6481     5.4804     0.9335 N.2     
  18 C18            4.3574     4.9020    -0.2043 C.2     
  19 C19            4.1968     5.5488    -1.5294 C.ar    
  20 C20            3.6411     6.8234    -1.6227 C.ar    
  21 C21            3.4944     7.4206    -2.8583 C.ar    
  22 C22            3.8978     6.7564    -4.0026 C.ar    
  23 C23            4.4496     5.4909    -3.9160 C.ar    
  24 C24            4.6063     4.8864    -2.6852 C.ar    
  25 C25            4.4642     2.2095     2.3487 C.3     
  26 C26           -3.6974     4.1594     0.5512 C.ar    
  27 C27           -3.0607     4.3241     1.7847 C.ar    
  28 C28           -1.8353     3.6957     2.0248 C.ar    
  29 C29           -1.2622     2.9129     1.0487 C.ar    
  30 C30           -3.6804     5.1598     2.8309 C.2     
  31 N31           -3.0653     5.3176     4.0196 N.am    
  32 O32           -4.7461     5.7062     2.6205 O.2     
  33 C33           -3.6806     6.1474     5.0584 C.3     
  34 C34           -4.6505     5.3278     5.8815 C.2     
  35 C35           -2.6127     6.6263     6.0669 C.3     
  36 C36           -3.3034     6.3587     7.4235 C.3     
  37 O37           -4.2268     5.2632     7.1518 O.3     
  38 O38           -5.6561     4.8093     5.4573 O.2     
  39 H39            3.9540     0.5374    -2.7341 H       
  40 H40            2.6464    -0.1858    -3.5022 H       
  41 H41           -1.8693     1.4776    -1.7915 H       
  42 H42           -3.6080     3.2520    -1.3759 H       
  43 H43            3.3255     7.3428    -0.7299 H       
  44 H44            3.0636     8.4082    -2.9319 H       
  45 H45            3.7812     7.2275    -4.9674 H       
  46 H46            4.7625     4.9768    -4.8127 H       
  47 H47            5.0376     3.8985    -2.6187 H       
  48 H48            5.4785     1.8190     2.4304 H       
  49 H49            4.0974     2.4784     3.3393 H       
  50 H50            3.8155     1.4482     1.9154 H       
  51 H51           -4.6440     4.6440     0.3626 H       
  52 H52           -1.3409     3.8210     2.9768 H       
  53 H53           -0.3156     2.4268     1.2337 H       
  54 H54           -2.2151     4.8818     4.1874 H       
  55 H55           -4.1902     7.0000     4.6094 H       
  56 H56           -1.6994     6.0386     5.9736 H       
  57 H57           -2.4067     7.6890     5.9390 H       
  58 H58           -2.5693     6.0609     8.1722 H       
  59 H59           -3.8485     7.2429     7.7541 H       
@<TRIPOS>BOND
   1    1    2 2
   2    1    4 1
   3    1   11 1
   4    2    3 1
   5    2    6 1
   6    3   12 3
   7    4    5 1
   8    5    6 2
   9    5    7 1
  10    6   10 1
  11    7    8 1
  12    7    9 2
  13    8   13 2
  14    8   18 1
  15   10   39 1
  16   10   40 1
  17   11   14 1
  18   11   41 1
  19   13   16 1
  20   13   25 1
  21   14   15 ar
  22   14   29 ar
  23   15   26 ar
  24   15   42 1
  25   16   17 1
  26   17   18 2
  27   18   19 1
  28   19   20 ar
  29   19   24 ar
  30   20   21 ar
  31   20   43 1
  32   21   22 ar
  33   21   44 1
  34   22   23 ar
  35   22   45 1
  36   23   24 ar
  37   23   46 1
  38   24   47 1
  39   25   48 1
  40   25   49 1
  41   25   50 1
  42   26   27 ar
  43   26   51 1
  44   27   28 ar
  45   27   30 1
  46   28   29 ar
  47   28   52 1
  48   29   53 1
  49   30   31 am
  50   30   32 2
  51   31   33 1
  52   31   54 1
  53   33   34 1
  54   33   35 1
  55   33   55 1
  56   34   38 2
  57   34   37 1
  58   35   36 1
  59   35   56 1
  60   35   57 1
  61   36   37 1
  62   36   58 1
  63   36   59 1

#	End of record

