#	Name: ASD01940387
#	Creating user name:	WinNT
#	Creation time:	15. 06. 2019 20:12

#	Modifying user name:	WinNT
#	Modification time:	15. 06. 2019 20:12

#	Program:	/corina/corina34_cracker 3.40 0067  02.08.2006

@<TRIPOS>MOLECULE
ASD01940387
  42   44    0    0    0
SMALL
NO_CHARGES


@<TRIPOS>ATOM
   1 S1             1.7200     2.4645     2.6744 S.3     
   2 N2             2.1735     0.9614     3.3150 N.2     
   3 C3             2.7975     0.3013     2.4018 C.2     
   4 C4             2.9780     0.8932     1.1402 C.ar    
   5 C5             2.4165     2.1830     1.0751 C.ar    
   6 C6             2.4833     2.9470    -0.0863 C.ar    
   7 C7             3.1000     2.4571    -1.1973 C.ar    
   8 C8             3.6733     1.1754    -1.1758 C.ar    
   9 C9             3.6175     0.3922    -0.0218 C.ar    
  10 N10            4.1860    -0.8697    -0.0115 N.pl3   
  11 C11            3.3932    -1.9960    -0.2564 C.ar    
  12 C12            3.9794    -3.2544    -0.3494 C.ar    
  13 C13            3.1924    -4.3648    -0.5916 C.ar    
  14 C14            1.8240    -4.2247    -0.7418 C.ar    
  15 C15            1.2394    -2.9748    -0.6497 C.ar    
  16 C16            2.0193    -1.8614    -0.4016 C.ar    
  17 I17            0.6350    -5.9099    -1.1101 I       
  18 F18            5.3156    -3.3909    -0.2037 F       
  19 C19            4.3374     0.6531    -2.3803 C.2     
  20 O20            4.9217    -0.4130    -2.3388 O.2     
  21 N21            4.2983     1.3559    -3.5297 N.am    
  22 O22            4.9374     0.8532    -4.6890 O.3     
  23 C23            4.8158     1.7005    -5.8333 C.3     
  24 C24            5.5398     1.0615    -7.0201 C.3     
  25 O25            4.8830    -0.1557    -7.3795 O.3     
  26 C26            5.4030    -0.8517    -8.4215 C.2     
  27 C27            4.8443    -1.9818    -8.8028 C.2     
  28 H28            3.1759    -0.6902     2.6025 H       
  29 H29            2.0436     3.9332    -0.1066 H       
  30 H30            3.1479     3.0547    -2.0956 H       
  31 H31            5.1340    -0.9731     0.1656 H       
  32 H32            3.6460    -5.3423    -0.6641 H       
  33 H33            0.1711    -2.8692    -0.7674 H       
  34 H34            1.5608    -0.8866    -0.3252 H       
  35 H35            3.8324     2.2060    -3.5627 H       
  36 H36            3.7618     1.8313    -6.0782 H       
  37 H37            5.2614     2.6711    -5.6156 H       
  38 H38            5.5235     1.7470    -7.8674 H       
  39 H39            6.5727     0.8493    -6.7442 H       
  40 H40            6.2751    -0.4791    -8.9382 H       
  41 H41            3.9723    -2.3544    -8.2860 H       
  42 H42            5.2583    -2.5358    -9.6323 H       
@<TRIPOS>BOND
   1    1    2 1
   2    1    5 1
   3    2    3 2
   4    3    4 1
   5    3   28 1
   6    4    5 ar
   7    4    9 ar
   8    5    6 ar
   9    6    7 ar
  10    6   29 1
  11    7    8 ar
  12    7   30 1
  13    8    9 ar
  14    8   19 1
  15    9   10 1
  16   10   11 1
  17   10   31 1
  18   11   12 ar
  19   11   16 ar
  20   12   13 ar
  21   12   18 1
  22   13   14 ar
  23   13   32 1
  24   14   15 ar
  25   14   17 1
  26   15   16 ar
  27   15   33 1
  28   16   34 1
  29   19   20 2
  30   19   21 am
  31   21   22 1
  32   21   35 1
  33   22   23 1
  34   23   24 1
  35   23   36 1
  36   23   37 1
  37   24   25 1
  38   24   38 1
  39   24   39 1
  40   25   26 1
  41   26   27 2
  42   26   40 1
  43   27   41 1
  44   27   42 1

#	End of record

