#	Name: ASD00311069
#	Creating user name:	WinNT
#	Creation time:	15. 06. 2019 18:34

#	Modifying user name:	WinNT
#	Modification time:	15. 06. 2019 18:34

#	Program:	/corina/corina34_cracker 3.40 0067  02.08.2006

@<TRIPOS>MOLECULE
ASD00311069
  39   42    0    0    0
SMALL
NO_CHARGES


@<TRIPOS>ATOM
   1 C1            -0.0167     1.3775     0.0096 C.2     
   2 C2             0.0021    -0.0041     0.0020 C.2     
   3 C3             1.2586    -0.6767    -0.0136 C.2     
   4 C4             2.4315     0.0671    -0.0208 C.2     
   5 C5             2.3575     1.4749    -0.0126 C.2     
   6 N6             1.1650     2.0901     0.0022 N.am    
   7 C7            -1.3435    -0.5754     0.0123 C.2     
   8 C8            -2.3233     0.3267     0.0268 C.2     
   9 S9            -1.6791     1.9565     0.0358 S.3     
  10 O10            3.3824     2.1371    -0.0184 O.2     
  11 C11            3.7476    -0.6123    -0.0366 C.ar    
  12 C12            4.5933    -0.4750    -1.1371 C.ar    
  13 C13            5.8181    -1.1104    -1.1459 C.ar    
  14 C14            6.2077    -1.8825    -0.0660 C.ar    
  15 C15            5.3732    -2.0225     1.0285 C.ar    
  16 C16            4.1485    -1.3873     1.0515 C.ar    
  17 C17           -1.5961    -2.0354     0.0065 C.ar    
  18 C18           -2.2067    -2.6446     1.1023 C.ar    
  19 C19           -2.4392    -4.0046     1.0911 C.ar    
  20 C20           -2.0680    -4.7637    -0.0043 C.ar    
  21 C21           -1.4619    -4.1651    -1.0943 C.ar    
  22 C22           -1.2293    -2.8049    -1.0972 C.ar    
  23 C23           -2.3244    -6.2487    -0.0100 C.3     
  24 O24            1.3083    -2.0292    -0.0209 O.3     
  25 Cl25          -4.0154    -0.0609     0.0406 Cl      
  26 H26            1.1328     3.0595     0.0077 H       
  27 H27            4.2901     0.1272    -1.9808 H       
  28 H28            6.4737    -1.0052    -1.9976 H       
  29 H29            7.1672    -2.3782    -0.0777 H       
  30 H30            5.6829    -2.6265     1.8685 H       
  31 H31            3.4998    -1.4937     1.9084 H       
  32 H32           -2.4966    -2.0531     1.9582 H       
  33 H33           -2.9117    -4.4776     1.9393 H       
  34 H34           -1.1740    -4.7628    -1.9465 H       
  35 H35           -0.7602    -2.3380    -1.9506 H       
  36 H36           -3.3085    -6.4459    -0.4353 H       
  37 H37           -1.5628    -6.7466    -0.6100 H       
  38 H38           -2.2875    -6.6277     1.0114 H       
  39 H39            2.2055    -2.3898    -0.0315 H       
@<TRIPOS>BOND
   1    1    2 2
   2    1    6 1
   3    1    9 1
   4    2    3 1
   5    2    7 1
   6    3    4 2
   7    3   24 1
   8    4    5 1
   9    4   11 1
  10    5    6 am
  11    5   10 2
  12    6   26 1
  13    7    8 2
  14    7   17 1
  15    8    9 1
  16    8   25 1
  17   11   12 ar
  18   11   16 ar
  19   12   13 ar
  20   12   27 1
  21   13   14 ar
  22   13   28 1
  23   14   15 ar
  24   14   29 1
  25   15   16 ar
  26   15   30 1
  27   16   31 1
  28   17   18 ar
  29   17   22 ar
  30   18   19 ar
  31   18   32 1
  32   19   20 ar
  33   19   33 1
  34   20   21 ar
  35   20   23 1
  36   21   22 ar
  37   21   34 1
  38   22   35 1
  39   23   36 1
  40   23   37 1
  41   23   38 1
  42   24   39 1

#	End of record

