#	Name: ASD01816070
#	Creating user name:	WinNT
#	Creation time:	15. 06. 2019 19:34

#	Modifying user name:	WinNT
#	Modification time:	15. 06. 2019 19:34

#	Program:	/corina/corina34_cracker 3.40 0067  02.08.2006

@<TRIPOS>MOLECULE
ASD01816070
  54   59    0    0    0
SMALL
NO_CHARGES


@<TRIPOS>ATOM
   1 C1            -0.6529     0.3897     0.4274 C.ar    
   2 C2            -0.3155    -0.9534     0.3845 C.ar    
   3 C3             1.0007    -1.3438     0.2491 C.ar    
   4 C4             2.0047    -0.3867     0.1542 C.ar    
   5 C5             1.6593     0.9744     0.1975 C.ar    
   6 C6             0.3285     1.3553     0.3344 C.ar    
   7 N7             3.3274    -0.7716     0.0191 N.pl3   
   8 C8             4.3385     0.1067    -0.0766 C.2     
   9 C9             4.1227     1.4621    -0.0463 C.2     
  10 C10            2.7402     1.9733     0.0951 C.2     
  11 C11            4.9630     2.6531    -0.1224 C.2     
  12 N12            4.1269     3.7099    -0.0320 N.am    
  13 N13            2.8059     3.2737     0.0970 N.2     
  14 O14            6.1769     2.6872    -0.2428 O.2     
  15 C15            3.6385    -2.2027    -0.0208 C.3     
  16 C16            3.6033    -2.6848    -1.4481 C.ar    
  17 C17            4.6885    -2.4599    -2.2794 C.ar    
  18 C18            4.6611    -2.9007    -3.5893 C.ar    
  19 C19            3.5383    -3.5723    -4.0719 C.ar    
  20 C20            2.4492    -3.7951    -3.2287 C.ar    
  21 C21            2.4898    -3.3553    -1.9216 C.ar    
  22 F22            5.7748    -1.8086    -1.8094 F       
  23 C23            4.5271     5.0518    -0.0631 C.ar    
  24 C24            4.1662     5.9109     0.9693 C.ar    
  25 C25            5.2899     5.5262    -1.1218 C.ar    
  26 C26            5.6830     6.8500    -1.1498 C.ar    
  27 C27            5.3183     7.7040    -0.1250 C.ar    
  28 C28            4.5635     7.2353     0.9345 C.ar    
  29 F29            3.4284     5.4528     2.0042 F       
  30 C30            3.5019    -4.0465    -5.4732 C.2     
  31 N31            4.2703    -3.5880    -6.5012 N.pl3   
  32 N32            3.9169    -4.3059    -7.6509 N.2     
  33 C33            2.9773    -5.1604    -7.3347 C.2     
  34 C34            2.6958    -5.0290    -5.9747 C.2     
  35 C35            5.2836    -2.5331    -6.4187 C.3     
  36 H36           -1.6876     0.6818     0.5296 H       
  37 H37           -1.0905    -1.7021     0.4581 H       
  38 H38            1.2515    -2.3938     0.2172 H       
  39 H39            0.0645     2.4020     0.3676 H       
  40 H40            5.3481    -0.2628    -0.1798 H       
  41 H41            4.6321    -2.3703     0.3949 H       
  42 H42            2.9018    -2.7511     0.5663 H       
  43 H43            5.5070    -2.7250    -4.2374 H       
  44 H44            1.5772    -4.3147    -3.5975 H       
  45 H45            1.6468    -3.5277    -1.2688 H       
  46 H46            5.5759     4.8605    -1.9227 H       
  47 H47            6.2767     7.2188    -1.9732 H       
  48 H48            5.6277     8.7384    -0.1499 H       
  49 H49            4.2803     7.9048     1.7332 H       
  50 H50            2.5022    -5.8542    -8.0124 H       
  51 H51            1.9656    -5.5981    -5.4185 H       
  52 H52            6.2266    -2.9609    -6.0783 H       
  53 H53            5.4221    -2.0847    -7.4025 H       
  54 H54            4.9559    -1.7688    -5.7140 H       
@<TRIPOS>BOND
   1    1    2 ar
   2    1    6 ar
   3    1   36 1
   4    2    3 ar
   5    2   37 1
   6    3    4 ar
   7    3   38 1
   8    4    5 ar
   9    4    7 1
  10    5    6 ar
  11    5   10 1
  12    6   39 1
  13    7    8 1
  14    7   15 1
  15    8    9 2
  16    8   40 1
  17    9   10 1
  18    9   11 1
  19   10   13 2
  20   11   12 am
  21   11   14 2
  22   12   13 1
  23   12   23 1
  24   15   16 1
  25   15   41 1
  26   15   42 1
  27   16   17 ar
  28   16   21 ar
  29   17   18 ar
  30   17   22 1
  31   18   19 ar
  32   18   43 1
  33   19   20 ar
  34   19   30 1
  35   20   21 ar
  36   20   44 1
  37   21   45 1
  38   23   24 ar
  39   23   25 ar
  40   24   29 1
  41   24   28 ar
  42   25   26 ar
  43   25   46 1
  44   26   27 ar
  45   26   47 1
  46   27   28 ar
  47   27   48 1
  48   28   49 1
  49   30   31 1
  50   30   34 2
  51   31   32 1
  52   31   35 1
  53   32   33 2
  54   33   34 1
  55   33   50 1
  56   34   51 1
  57   35   52 1
  58   35   53 1
  59   35   54 1

#	End of record

