#	Name: ASD01882151
#	Creating user name:	WinNT
#	Creation time:	15. 06. 2019 19:44

#	Modifying user name:	WinNT
#	Modification time:	15. 06. 2019 19:44

#	Program:	/corina/corina34_cracker 3.40 0067  02.08.2006

@<TRIPOS>MOLECULE
ASD01882151
  44   47    0    0    0
SMALL
NO_CHARGES


@<TRIPOS>ATOM
   1 C1            -0.4070     0.7384    -1.1126 C.2     
   2 C2             0.0021    -0.0041     0.0020 C.2     
   3 C3            -0.8269    -0.0436     1.1386 C.2     
   4 C4            -1.9990     0.6181     1.1664 C.2     
   5 N5            -2.4375     1.3532     0.1042 N.pl3   
   6 C6            -1.6865     1.4486    -1.0386 C.2     
   7 C7            -3.5720     2.0989    -0.1027 C.2     
   8 C8            -3.4873     2.6148    -1.3454 C.2     
   9 N9            -2.3371     2.2111    -1.8983 N.2     
  10 N10            1.2030    -0.6889    -0.0141 N.pl3   
  11 C11            1.2305    -2.1543     0.0880 C.3     
  12 C12            2.1618    -2.5511     1.2378 C.3     
  13 C13            3.5346    -1.9102     1.0215 C.3     
  14 C14            3.3932    -0.3864     1.0183 C.3     
  15 C15            2.4756     0.0345    -0.1397 C.3     
  16 C16            4.4635    -2.3260     2.1329 C.ar    
  17 C17            5.6254    -3.0157     1.8410 C.ar    
  18 C18            6.4774    -3.3971     2.8605 C.ar    
  19 C19            6.1678    -3.0883     4.1719 C.ar    
  20 C20            5.0064    -2.3978     4.4638 C.ar    
  21 C21            4.1565    -2.0126     3.4438 C.ar    
  22 C22           -4.7001     2.3019     0.8756 C.3     
  23 F23           -4.4381     3.4287     1.6623 F       
  24 F24           -5.8965     2.4901     0.1753 F       
  25 F25           -4.8131     1.1754     1.6975 F       
  26 C26            0.4055     0.8066    -2.2898 C.1     
  27 N27            1.0500     0.8606    -3.2237 N.1     
  28 H28           -0.5180    -0.6142     2.0020 H       
  29 H29           -2.6099     0.5652     2.0554 H       
  30 H30           -4.2232     3.2506    -1.8152 H       
  31 H31            0.2253    -2.5257     0.2872 H       
  32 H32            1.6008    -2.5787    -0.8452 H       
  33 H33            1.7426    -2.2033     2.1820 H       
  34 H34            2.2666    -3.6358     1.2634 H       
  35 H35            3.9423    -2.2391     0.0656 H       
  36 H36            2.9625    -0.0590     1.9645 H       
  37 H37            4.3745     0.0697     0.8875 H       
  38 H38            2.9498    -0.2117    -1.0897 H       
  39 H39            2.2912     1.1076    -0.0883 H       
  40 H40            5.8672    -3.2569     0.8165 H       
  41 H41            7.3848    -3.9366     2.6326 H       
  42 H42            6.8332    -3.3869     4.9685 H       
  43 H43            4.7644    -2.1568     5.4883 H       
  44 H44            3.2491    -1.4731     3.6718 H       
@<TRIPOS>BOND
   1    1    2 2
   2    1   26 1
   3    1    6 1
   4    2    3 1
   5    2   10 1
   6    3    4 2
   7    3   28 1
   8    4    5 1
   9    4   29 1
  10    5    6 1
  11    5    7 1
  12    6    9 2
  13    7    8 2
  14    7   22 1
  15    8    9 1
  16    8   30 1
  17   10   11 1
  18   10   15 1
  19   11   12 1
  20   11   31 1
  21   11   32 1
  22   12   13 1
  23   12   33 1
  24   12   34 1
  25   13   14 1
  26   13   16 1
  27   13   35 1
  28   14   15 1
  29   14   36 1
  30   14   37 1
  31   15   38 1
  32   15   39 1
  33   16   17 ar
  34   16   21 ar
  35   17   18 ar
  36   17   40 1
  37   18   19 ar
  38   18   41 1
  39   19   20 ar
  40   19   42 1
  41   20   21 ar
  42   20   43 1
  43   21   44 1
  44   22   23 1
  45   22   24 1
  46   22   25 1
  47   26   27 3

#	End of record

