#	Name: ASD02500507
#	Creating user name:	WinNT
#	Creation time:	15. 06. 2019 20:22

#	Modifying user name:	WinNT
#	Modification time:	15. 06. 2019 20:22

#	Program:	/corina/corina34_cracker 3.40 0067  02.08.2006

@<TRIPOS>MOLECULE
ASD02500507
  68   72    0    0    0
SMALL
NO_CHARGES


@<TRIPOS>ATOM
   1 N1             1.9000     4.0697    -1.0116 N.ar    
   2 C2             2.8715     3.8178    -0.1684 C.ar    
   3 C3             4.0146     3.1205    -0.5539 C.ar    
   4 C4             4.1429     2.6800    -1.8403 C.ar    
   5 C5             3.0974     2.9520    -2.7429 C.ar    
   6 C6             3.1585     2.5314    -4.0809 C.ar    
   7 C7             2.1266     2.8144    -4.9231 C.ar    
   8 C8             1.0101     3.5169    -4.4748 C.ar    
   9 C9             0.9179     3.9396    -3.1844 C.ar    
  10 C10            1.9627     3.6666    -2.2847 C.ar    
  11 S11           -0.5054     4.8267    -2.6440 S.o2    
  12 O12           -0.0260     5.9652    -1.9417 O.2     
  13 O13           -1.3736     4.9141    -3.7656 O.2     
  14 N14           -1.2785     3.8795    -1.5270 N.am    
  15 C15           -1.8230     2.6583    -1.9086 C.ar    
  16 C16           -1.5995     1.5250    -1.1316 C.ar    
  17 C17           -2.1370     0.3150    -1.5065 C.ar    
  18 C18           -2.9081     0.2245    -2.6691 C.ar    
  19 C19           -3.1306     1.3644    -3.4472 C.ar    
  20 C20           -2.5951     2.5727    -3.0639 C.ar    
  21 C21           -3.4853    -1.0712    -3.0742 C.2     
  22 O22           -4.6196    -1.1220    -3.5094 O.2     
  23 N23           -2.7555    -2.1987    -2.9619 N.am    
  24 C24           -3.2848    -3.4021    -3.4619 C.3     
  25 C25           -3.3823    -4.4619    -2.3352 C.3     
  26 N26           -2.0450    -4.9174    -2.0149 N.3     
  27 C27           -1.3907    -4.2119    -0.8934 C.3     
  28 C28           -1.5830    -2.6967    -0.9280 C.3     
  29 C29           -1.4254    -2.1258    -2.3235 C.3     
  30 C30           -2.0195    -6.3717    -1.8085 C.3     
  31 C31           -2.3343    -7.0688    -3.1070 C.ar    
  32 C32           -1.3468    -7.2231    -4.0692 C.ar    
  33 C33           -1.6389    -7.8655    -5.2633 C.ar    
  34 C34           -2.9122    -8.3506    -5.4923 C.ar    
  35 C35           -3.8956    -8.1953    -4.5318 C.ar    
  36 C36           -3.6046    -7.5597    -3.3375 C.ar    
  37 C37           -3.2300    -9.0486    -6.7895 C.3     
  38 O38           -0.0949    -6.7449    -3.8423 O.3     
  39 Cl39          -5.4950    -8.8046    -4.8223 Cl      
  40 H40            2.7838     4.1601     0.8522 H       
  41 H41            4.7986     2.9289     0.1637 H       
  42 H42            5.0222     2.1384    -2.1564 H       
  43 H43            4.0192     1.9868    -4.4402 H       
  44 H44            2.1745     2.4905    -5.9523 H       
  45 H45            0.2050     3.7297    -5.1625 H       
  46 H46           -1.3515     4.1767    -0.6065 H       
  47 H47           -1.0034     1.5955    -0.2337 H       
  48 H48           -1.9630    -0.5639    -0.9035 H       
  49 H49           -3.7256     1.2976    -4.3461 H       
  50 H50           -2.7706     3.4546    -3.6620 H       
  51 H51           -4.2791    -3.2164    -3.8682 H       
  52 H52           -2.6375    -3.7780    -4.2543 H       
  53 H53           -3.8386    -4.0159    -1.4515 H       
  54 H54           -3.9842    -5.3043    -2.6759 H       
  55 H55           -1.7970    -4.5937     0.0432 H       
  56 H56           -0.3228    -4.4286    -0.9208 H       
  57 H57           -2.5806    -2.4591    -0.5588 H       
  58 H58           -0.8463    -2.2325    -0.2723 H       
  59 H59           -0.7072    -2.7178    -2.8908 H       
  60 H60           -1.0946    -1.0886    -2.2697 H       
  61 H61           -1.0297    -6.6726    -1.4652 H       
  62 H62           -2.7626    -6.6455    -1.0596 H       
  63 H63           -0.8716    -7.9863    -6.0137 H       
  64 H64           -4.3725    -7.4434    -2.5870 H       
  65 H65           -3.0393   -10.1166    -6.6836 H       
  66 H66           -4.2789    -8.8900    -7.0400 H       
  67 H67           -2.6018    -8.6443    -7.5832 H       
  68 H68            0.4974    -7.3797    -3.4166 H       
@<TRIPOS>BOND
   1    1    2 ar
   2    1   10 ar
   3    2    3 ar
   4    2   40 1
   5    3    4 ar
   6    3   41 1
   7    4    5 ar
   8    4   42 1
   9    5    6 ar
  10    5   10 ar
  11    6    7 ar
  12    6   43 1
  13    7    8 ar
  14    7   44 1
  15    8    9 ar
  16    8   45 1
  17    9   10 ar
  18    9   11 1
  19   11   12 2
  20   11   13 2
  21   11   14 am
  22   14   15 1
  23   14   46 1
  24   15   16 ar
  25   15   20 ar
  26   16   17 ar
  27   16   47 1
  28   17   18 ar
  29   17   48 1
  30   18   19 ar
  31   18   21 1
  32   19   20 ar
  33   19   49 1
  34   20   50 1
  35   21   22 2
  36   21   23 am
  37   23   24 1
  38   23   29 1
  39   24   25 1
  40   24   51 1
  41   24   52 1
  42   25   26 1
  43   25   53 1
  44   25   54 1
  45   26   27 1
  46   26   30 1
  47   27   28 1
  48   27   55 1
  49   27   56 1
  50   28   29 1
  51   28   57 1
  52   28   58 1
  53   29   59 1
  54   29   60 1
  55   30   31 1
  56   30   61 1
  57   30   62 1
  58   31   32 ar
  59   31   36 ar
  60   32   33 ar
  61   32   38 1
  62   33   34 ar
  63   33   63 1
  64   34   35 ar
  65   34   37 1
  66   35   36 ar
  67   35   39 1
  68   36   64 1
  69   37   65 1
  70   37   66 1
  71   37   67 1
  72   38   68 1

#	End of record

