#	Name: ASD01916133
#	Creating user name:	WinNT
#	Creation time:	15. 06. 2019 20:06

#	Modifying user name:	WinNT
#	Modification time:	15. 06. 2019 20:06

#	Program:	/corina/corina34_cracker 3.40 0067  02.08.2006

@<TRIPOS>MOLECULE
ASD01916133
  46   49    0    0    0
SMALL
NO_CHARGES


@<TRIPOS>ATOM
   1 C1             0.2916     1.2557    -0.7574 C.ar    
   2 C2             0.2723    -0.1246    -0.6662 C.ar    
   3 C3            -0.9395    -0.7980    -0.6202 C.ar    
   4 C4            -2.1290    -0.0857    -0.6659 C.ar    
   5 C5            -2.1056     1.2928    -0.7570 C.ar    
   6 C6            -0.8981     1.9640    -0.7970 C.ar    
   7 O7            -0.9614    -2.1539    -0.5310 O.3     
   8 C8            -2.2449    -2.7806    -0.4881 C.3     
   9 C9            -2.0715    -4.2744    -0.3901 C.2     
  10 C10           -0.8496    -4.9578    -0.3469 C.2     
  11 N11           -3.0378    -5.1567    -0.3250 N.2     
  12 N12           -2.4627    -6.4275    -0.2400 N.pl3   
  13 C13           -1.1184    -6.2743    -0.2606 C.2     
  14 C14           -3.1589    -7.7129    -0.1357 C.3     
  15 C15           -2.1985    -8.8410    -0.5277 C.3     
  16 N16           -0.9053    -8.6304     0.1406 N.am    
  17 C17           -0.1361    -7.4201    -0.2011 C.3     
  18 C18           -0.4375    -9.5160     1.0425 C.2     
  19 C19            0.9164    -9.3415     1.6186 C.ar    
  20 O20           -1.1260   -10.4575     1.3831 O.2     
  21 C21            1.0571    -8.8638     2.9192 C.ar    
  22 C22            2.3302    -8.7059     3.4446 C.ar    
  23 C23            3.4181    -9.0314     2.6502 C.ar    
  24 C24            3.2038    -9.5016     1.3641 C.ar    
  25 N25            1.9850    -9.6470     0.8926 N.ar    
  26 F26            1.4710     1.9132    -0.8023 F       
  27 C27           -0.1575    -8.5230     3.7437 C.3     
  28 H28            1.1996    -0.6771    -0.6311 H       
  29 H29           -3.0733    -0.6086    -0.6306 H       
  30 H30           -3.0320     1.8468    -0.7925 H       
  31 H31           -0.8821     3.0416    -0.8679 H       
  32 H32           -2.7959    -2.4210     0.3809 H       
  33 H33           -2.7983    -2.5378    -1.3952 H       
  34 H34            0.1323    -4.5091    -0.3772 H       
  35 H35           -3.4962    -7.8619     0.8900 H       
  36 H36           -4.0182    -7.7169    -0.8064 H       
  37 H37           -2.6165    -9.7989    -0.2183 H       
  38 H38           -2.0547    -8.8377    -1.6082 H       
  39 H39            0.3435    -7.5460    -1.1717 H       
  40 H40            0.6159    -7.2289     0.5644 H       
  41 H41            2.4710    -8.3372     4.4499 H       
  42 H42            4.4231    -8.9194     3.0295 H       
  43 H43            4.0494    -9.7559     0.7422 H       
  44 H44           -0.5330    -9.4247     4.2274 H       
  45 H45            0.1129    -7.7891     4.5029 H       
  46 H46           -0.9310    -8.1086     3.0970 H       
@<TRIPOS>BOND
   1    1    2 ar
   2    1   26 1
   3    1    6 ar
   4    2    3 ar
   5    2   28 1
   6    3    4 ar
   7    3    7 1
   8    4    5 ar
   9    4   29 1
  10    5    6 ar
  11    5   30 1
  12    6   31 1
  13    7    8 1
  14    8    9 1
  15    8   32 1
  16    8   33 1
  17    9   10 1
  18    9   11 2
  19   10   13 2
  20   10   34 1
  21   11   12 1
  22   12   13 1
  23   12   14 1
  24   13   17 1
  25   14   15 1
  26   14   35 1
  27   14   36 1
  28   15   16 1
  29   15   37 1
  30   15   38 1
  31   16   17 1
  32   16   18 am
  33   17   39 1
  34   17   40 1
  35   18   19 1
  36   18   20 2
  37   19   21 ar
  38   19   25 ar
  39   21   22 ar
  40   21   27 1
  41   22   23 ar
  42   22   41 1
  43   23   24 ar
  44   23   42 1
  45   24   25 ar
  46   24   43 1
  47   27   44 1
  48   27   45 1
  49   27   46 1

#	End of record

