#	Name: ASD08150437
#	Creating user name:	WinNT
#	Creation time:	15. 06. 2019 21:16

#	Modifying user name:	WinNT
#	Modification time:	15. 06. 2019 21:16

#	Program:	/corina/corina34_cracker 3.40 0067  02.08.2006

@<TRIPOS>MOLECULE
ASD08150437
  46   50    0    0    0
SMALL
NO_CHARGES


@<TRIPOS>ATOM
   1 N1             0.8874     2.9244    -1.5205 N.am    
   2 C2             1.3156     2.3017    -2.6357 C.2     
   3 C3             2.5254     1.5780    -2.6414 C.2     
   4 C4             3.2793     1.4989    -1.5154 C.2     
   5 C5             2.8318     2.1528    -0.3402 C.ar    
   6 C6             3.5758     2.1027     0.8541 C.ar    
   7 N7             3.1606     2.7068     1.9367 N.ar    
   8 C8             2.0146     3.4033     1.9751 C.ar    
   9 C9             1.2020     3.5076     0.8194 C.ar    
  10 C10            1.6228     2.8649    -0.3685 C.ar    
  11 C11            0.0089     4.2350     0.8702 C.ar    
  12 C12           -0.3665     4.8477     2.0545 C.ar    
  13 C13            0.4428     4.7405     3.1940 C.ar    
  14 C14            1.6060     4.0367     3.1603 C.ar    
  15 O15            0.6477     2.3646    -3.6538 O.2     
  16 C16           -1.6308     5.6214     2.1171 C.ar    
  17 C17           -0.3151     3.6419    -1.5422 C.ar    
  18 C18           -0.3088     5.0003    -1.8290 C.ar    
  19 C19           -1.4968     5.7065    -1.8498 C.ar    
  20 C20           -2.6930     5.0590    -1.5846 C.ar    
  21 C21           -2.7003     3.7042    -1.2980 C.ar    
  22 C22           -1.5159     2.9942    -1.2824 C.ar    
  23 Cl23          -1.4904     7.4052    -2.2076 Cl      
  24 F24           -3.8535     5.7504    -1.6053 F       
  25 C25           -1.7110     6.7887     2.8804 C.ar    
  26 C26           -2.7550     5.1980     1.4107 C.ar    
  27 N27           -3.8797     5.8818     1.4634 N.ar    
  28 C28           -3.9923     6.9843     2.1777 C.ar    
  29 C29           -2.9174     7.4763     2.9058 C.ar    
  30 O30           -3.0457     8.6139     3.6385 O.3     
  31 C31           -4.3205     9.2592     3.6168 C.3     
  32 H32            2.8532     1.0847    -3.5444 H       
  33 H33            4.2066     0.9453    -1.5149 H       
  34 H34            4.5063     1.5548     0.8764 H       
  35 H35           -0.6150     4.3188    -0.0073 H       
  36 H36            0.1388     5.2237     4.1108 H       
  37 H37            2.2171     3.9639     4.0479 H       
  38 H38            0.6235     5.5049    -2.0352 H       
  39 H39           -3.6335     3.2014    -1.0913 H       
  40 H40           -1.5225     1.9376    -1.0588 H       
  41 H41           -0.8573     7.1468     3.4365 H       
  42 H42           -2.7035     4.2998     0.8134 H       
  43 H43           -4.9330     7.5147     2.1932 H       
  44 H44           -4.5679     9.5406     2.5933 H       
  45 H45           -5.0796     8.5771     3.9997 H       
  46 H46           -4.2864    10.1521     4.2410 H       
@<TRIPOS>BOND
   1    1    2 am
   2    1   10 1
   3    1   17 1
   4    2    3 1
   5    2   15 2
   6    3    4 2
   7    3   32 1
   8    4    5 1
   9    4   33 1
  10    5    6 ar
  11    5   10 ar
  12    6    7 ar
  13    6   34 1
  14    7    8 ar
  15    8    9 ar
  16    8   14 ar
  17    9   10 ar
  18    9   11 ar
  19   11   12 ar
  20   11   35 1
  21   12   13 ar
  22   12   16 1
  23   13   14 ar
  24   13   36 1
  25   14   37 1
  26   16   25 ar
  27   16   26 ar
  28   17   18 ar
  29   17   22 ar
  30   18   19 ar
  31   18   38 1
  32   19   20 ar
  33   19   23 1
  34   20   21 ar
  35   20   24 1
  36   21   22 ar
  37   21   39 1
  38   22   40 1
  39   25   29 ar
  40   25   41 1
  41   26   27 ar
  42   26   42 1
  43   27   28 ar
  44   28   29 ar
  45   28   43 1
  46   29   30 1
  47   30   31 1
  48   31   44 1
  49   31   45 1
  50   31   46 1

#	End of record

