#	Name: ASD01880860
#	Creating user name:	WinNT
#	Creation time:	15. 06. 2019 19:41

#	Modifying user name:	WinNT
#	Modification time:	15. 06. 2019 19:41

#	Program:	/corina/corina34_cracker 3.40 0067  02.08.2006

@<TRIPOS>MOLECULE
ASD01880860
  45   47    0    0    0
SMALL
NO_CHARGES


@<TRIPOS>ATOM
   1 N1            -0.0159     1.3188     0.0093 N.ar    
   2 C2             0.0021    -0.0041     0.0020 C.ar    
   3 N3             1.1383    -0.6823    -0.0120 N.ar    
   4 C4             2.3018    -0.0529    -0.0198 C.ar    
   5 C5             2.3203     1.3332    -0.0129 C.ar    
   6 C6             1.1118     2.0109     0.0022 C.ar    
   7 C7             3.6257     2.0861    -0.0209 C.3     
   8 O8             4.7114     1.1571    -0.0353 O.3     
   9 C9             1.0822     3.5176     0.0096 C.3     
  10 C10            5.9656     1.6753    -0.0439 C.ar    
  11 C11            7.0683     0.8266    -0.0581 C.ar    
  12 C12            8.3365     1.3520    -0.0673 C.ar    
  13 C13            8.5286     2.7376    -0.0625 C.ar    
  14 C14            7.4177     3.5855    -0.0487 C.ar    
  15 C15            6.1476     3.0531    -0.0444 C.ar    
  16 C16            9.7113     0.7317    -0.0829 C.3     
  17 N17           10.6642     1.8475    -0.0864 N.am    
  18 C18            9.9776     3.0029    -0.0746 C.2     
  19 O19           10.4809     4.1097    -0.0744 O.2     
  20 C20            7.6093     5.0803    -0.0428 C.3     
  21 O21           -1.1713    -0.6808     0.0096 O.3     
  22 C22           -1.0972    -2.1079     0.0012 C.3     
  23 C23           12.6191     1.6858    -1.5472 C.3     
  24 C24           12.1238     1.7227    -0.1000 C.3     
  25 H25            3.2258    -0.6119    -0.0309 H       
  26 H26            3.6757     2.7172    -0.9082 H       
  27 H27            3.6917     2.7082     0.8717 H       
  28 H28            1.0649     3.8857    -1.0162 H       
  29 H29            0.1904     3.8609     0.5340 H       
  30 H30            1.9699     3.8960     0.5165 H       
  31 H31            6.9266    -0.2441    -0.0615 H       
  32 H32            5.2895     3.7089    -0.0341 H       
  33 H33            9.8558     0.1184     0.8065 H       
  34 H34            9.8393     0.1268    -0.9806 H       
  35 H35            7.6466     5.4459    -1.0690 H       
  36 H36            6.7772     5.5512     0.4806 H       
  37 H37            8.5426     5.3250     0.4642 H       
  38 H38           -2.1046    -2.5241     0.0086 H       
  39 H39           -0.5738    -2.4393    -0.8956 H       
  40 H40           -0.5568    -2.4488     0.8843 H       
  41 H41           12.3283     2.6058    -2.0543 H       
  42 H42           13.7051     1.5929    -1.5573 H       
  43 H43           12.1767     0.8323    -2.0609 H       
  44 H44           12.5663     2.5762     0.4137 H       
  45 H45           12.4146     0.8027     0.4071 H       
@<TRIPOS>BOND
   1    1    2 ar
   2    1    6 ar
   3    2    3 ar
   4    2   21 1
   5    3    4 ar
   6    4    5 ar
   7    4   25 1
   8    5    6 ar
   9    5    7 1
  10    6    9 1
  11    7    8 1
  12    7   26 1
  13    7   27 1
  14    8   10 1
  15    9   28 1
  16    9   29 1
  17    9   30 1
  18   10   11 ar
  19   10   15 ar
  20   11   12 ar
  21   11   31 1
  22   12   13 ar
  23   12   16 1
  24   13   14 ar
  25   13   18 1
  26   14   15 ar
  27   14   20 1
  28   15   32 1
  29   16   17 1
  30   16   33 1
  31   16   34 1
  32   17   18 am
  33   17   24 1
  34   18   19 2
  35   20   35 1
  36   20   36 1
  37   20   37 1
  38   21   22 1
  39   22   38 1
  40   22   39 1
  41   22   40 1
  42   23   24 1
  43   23   41 1
  44   23   42 1
  45   23   43 1
  46   24   44 1
  47   24   45 1

#	End of record

