#	Name: ASD01901140
#	Creating user name:	WinNT
#	Creation time:	15. 06. 2019 19:53

#	Modifying user name:	WinNT
#	Modification time:	15. 06. 2019 19:53

#	Program:	/corina/corina34_cracker 3.40 0067  02.08.2006

@<TRIPOS>MOLECULE
ASD01901140
  49   52    0    0    0
SMALL
NO_CHARGES


@<TRIPOS>ATOM
   1 C1            -0.0166     1.3750     0.0096 C.ar    
   2 C2             0.0021    -0.0041     0.0020 C.ar    
   3 C3             1.2078    -0.6830    -0.0131 C.ar    
   4 C4             2.4027     0.0149    -0.0208 C.ar    
   5 C5             2.3997     1.3941    -0.0129 C.ar    
   6 C6             1.1860     2.0866     0.0019 C.ar    
   7 C7             1.1748     3.5185     0.0093 C.1     
   8 C8             1.1655     4.6925     0.0153 C.1     
   9 C9             1.1543     6.1244     0.0226 C.ar    
  10 C10            2.3583     6.8345     0.0149 C.ar    
  11 C11            2.3436     8.2144     0.0215 C.ar    
  12 C12            1.1325     8.8988     0.0358 C.ar    
  13 C13           -0.0678     8.1953     0.0435 C.ar    
  14 C14           -0.0608     6.8154     0.0316 C.ar    
  15 N15            1.1215    10.3012     0.0430 N.am    
  16 C16            1.1058    10.9636    -1.1253 C.2     
  17 N17            1.3182    12.2909    -1.1818 N.am    
  18 C18            1.6810    13.0379     0.0144 C.3     
  19 C19            1.0060    12.4573     1.2499 C.3     
  20 C20            1.1212    10.9528     1.2198 C.2     
  21 O21            0.8956    10.3507    -2.1536 O.2     
  22 C22            1.1836    12.9924    -2.4609 C.3     
  23 F23            3.5068     8.9015     0.0146 F       
  24 O24            1.2181    10.3318     2.2566 O.2     
  25 C25            3.2120    13.0571     0.1973 C.3     
  26 C26            1.3176    14.5278    -0.1466 C.3     
  27 C27            2.4873    15.1153    -0.9653 C.3     
  28 C28            3.6908    14.1810    -0.7468 C.3     
  29 F29           -1.2416     8.8640     0.0574 F       
  30 H30           -0.9584     1.9035     0.0169 H       
  31 H31           -0.9266    -0.5554     0.0083 H       
  32 H32            1.2163    -1.7630    -0.0187 H       
  33 H33            3.3399    -0.5217    -0.0326 H       
  34 H34            3.3330     1.9375    -0.0182 H       
  35 H35            3.2989     6.3039     0.0042 H       
  36 H36           -0.9929     6.2700     0.0331 H       
  37 H37            1.4919    12.8437     2.1458 H       
  38 H38           -0.0471    12.7384     1.2555 H       
  39 H39            0.9098    12.2798    -3.2390 H       
  40 H40            0.4090    13.7547    -2.3775 H       
  41 H41            2.1318    13.4645    -2.7179 H       
  42 H42            3.4701    13.2906     1.2302 H       
  43 H43            3.6437    12.1008    -0.0981 H       
  44 H44            0.3792    14.6351    -0.6907 H       
  45 H45            1.2525    15.0123     0.8276 H       
  46 H46            2.2249    15.1450    -2.0228 H       
  47 H47            2.7243    16.1184    -0.6108 H       
  48 H48            4.5116    14.7309    -0.2863 H       
  49 H49            4.0122    13.7575    -1.6983 H       
@<TRIPOS>BOND
   1    1    2 ar
   2    1    6 ar
   3    1   30 1
   4    2    3 ar
   5    2   31 1
   6    3    4 ar
   7    3   32 1
   8    4    5 ar
   9    4   33 1
  10    5    6 ar
  11    5   34 1
  12    6    7 1
  13    7    8 3
  14    8    9 1
  15    9   10 ar
  16    9   14 ar
  17   10   11 ar
  18   10   35 1
  19   11   12 ar
  20   11   23 1
  21   12   13 ar
  22   12   15 1
  23   13   14 ar
  24   13   29 1
  25   14   36 1
  26   15   16 am
  27   15   20 am
  28   16   17 am
  29   16   21 2
  30   17   18 1
  31   17   22 1
  32   18   19 1
  33   18   26 1
  34   18   25 1
  35   19   20 1
  36   19   37 1
  37   19   38 1
  38   20   24 2
  39   22   39 1
  40   22   40 1
  41   22   41 1
  42   25   28 1
  43   25   42 1
  44   25   43 1
  45   26   27 1
  46   26   44 1
  47   26   45 1
  48   27   28 1
  49   27   46 1
  50   27   47 1
  51   28   48 1
  52   28   49 1

#	End of record

