#	Name: ASD01816378
#	Creating user name:	WinNT
#	Creation time:	15. 06. 2019 19:35

#	Modifying user name:	WinNT
#	Modification time:	15. 06. 2019 19:35

#	Program:	/corina/corina34_cracker 3.40 0067  02.08.2006

@<TRIPOS>MOLECULE
ASD01816378
  62   68    0    0    0
SMALL
NO_CHARGES


@<TRIPOS>ATOM
   1 C1            -0.3946     4.1189    -1.8517 C.ar    
   2 C2            -0.8975     2.8666    -2.1653 C.ar    
   3 C3            -0.0972     1.7461    -2.0808 C.ar    
   4 C4             1.2281     1.8656    -1.6778 C.ar    
   5 C5             1.7350     3.1369    -1.3605 C.ar    
   6 C6             0.9180     4.2591    -1.4497 C.ar    
   7 N7             2.0363     0.7453    -1.5904 N.pl3   
   8 C8             3.3222     0.7994    -1.2076 C.2     
   9 C9             3.9266     1.9857    -0.8732 C.2     
  10 C10            3.1439     3.2411    -0.9352 C.2     
  11 C11            5.2578     2.3885    -0.4303 C.2     
  12 N12            5.2103     3.7282    -0.2661 N.am    
  13 N13            3.9357     4.2100    -0.5748 N.2     
  14 O14            6.2199     1.6611    -0.2450 O.2     
  15 C15            1.4624    -0.5590    -1.9306 C.3     
  16 C16            1.6604    -0.8270    -3.4003 C.ar    
  17 C17            2.8021    -1.4740    -3.8360 C.ar    
  18 C18            2.9866    -1.7207    -5.1824 C.ar    
  19 C19            2.0241    -1.3186    -6.0986 C.ar    
  20 C20            0.8785    -0.6696    -5.6581 C.ar    
  21 C21            0.6973    -0.4304    -4.3098 C.ar    
  22 N22            2.2087    -1.5671    -7.4659 N.pl3   
  23 C23            1.3543    -1.2301    -8.4584 C.2     
  24 C24            1.8970    -1.6440    -9.6269 C.2     
  25 C25            3.1232    -2.2540    -9.3403 C.2     
  26 N26            3.3136    -2.2030    -8.0464 N.2     
  27 C27            6.2859     4.5217     0.1539 C.ar    
  28 C28            7.4910     4.4795    -0.5320 C.ar    
  29 C29            8.5506     5.2633    -0.1156 C.ar    
  30 C30            8.4133     6.0904     0.9837 C.ar    
  31 C31            7.2154     6.1382     1.6727 C.ar    
  32 C32            6.1463     5.3602     1.2587 C.ar    
  33 O33            4.9680     5.4060     1.9349 O.3     
  34 C34            4.8463     6.3076     2.9441 C.ar    
  35 C35            4.3922     7.5915     2.6781 C.ar    
  36 C36            4.2689     8.5060     3.7060 C.ar    
  37 C37            4.5976     8.1430     4.9991 C.ar    
  38 C38            5.0507     6.8644     5.2669 C.ar    
  39 C39            5.1704     5.9442     4.2435 C.ar    
  40 H40           -1.0305     4.9886    -1.9264 H       
  41 H41           -1.9262     2.7666    -2.4787 H       
  42 H42           -0.5006     0.7751    -2.3275 H       
  43 H43            1.3091     5.2356    -1.2051 H       
  44 H44            3.8959    -0.1144    -1.1613 H       
  45 H45            1.9580    -1.3367    -1.3495 H       
  46 H46            0.3967    -0.5579    -1.7018 H       
  47 H47            3.5505    -1.7866    -3.1228 H       
  48 H48            3.8789    -2.2254    -5.5222 H       
  49 H49            0.1282    -0.3553    -6.3685 H       
  50 H50           -0.1936     0.0745    -3.9665 H       
  51 H51            0.4085    -0.7225    -8.3398 H       
  52 H52            1.4607    -1.5246   -10.6076 H       
  53 H53            3.7984    -2.6880   -10.0628 H       
  54 H54            7.6013     3.8341    -1.3908 H       
  55 H55            9.4884     5.2292    -0.6502 H       
  56 H56            9.2442     6.7007     1.3055 H       
  57 H57            7.1118     6.7852     2.5312 H       
  58 H58            4.1357     7.8757     1.6682 H       
  59 H59            3.9159     9.5056     3.4994 H       
  60 H60            4.5005     8.8595     5.8013 H       
  61 H61            5.3071     6.5834     6.2777 H       
  62 H62            5.5243     4.9457     4.4532 H       
@<TRIPOS>BOND
   1    1    2 ar
   2    1    6 ar
   3    1   40 1
   4    2    3 ar
   5    2   41 1
   6    3    4 ar
   7    3   42 1
   8    4    5 ar
   9    4    7 1
  10    5    6 ar
  11    5   10 1
  12    6   43 1
  13    7    8 1
  14    7   15 1
  15    8    9 2
  16    8   44 1
  17    9   10 1
  18    9   11 1
  19   10   13 2
  20   11   12 am
  21   11   14 2
  22   12   13 1
  23   12   27 1
  24   15   16 1
  25   15   45 1
  26   15   46 1
  27   16   17 ar
  28   16   21 ar
  29   17   18 ar
  30   17   47 1
  31   18   19 ar
  32   18   48 1
  33   19   20 ar
  34   19   22 1
  35   20   21 ar
  36   20   49 1
  37   21   50 1
  38   22   23 1
  39   22   26 1
  40   23   24 2
  41   23   51 1
  42   24   25 1
  43   24   52 1
  44   25   26 2
  45   25   53 1
  46   27   28 ar
  47   27   32 ar
  48   28   29 ar
  49   28   54 1
  50   29   30 ar
  51   29   55 1
  52   30   31 ar
  53   30   56 1
  54   31   32 ar
  55   31   57 1
  56   32   33 1
  57   33   34 1
  58   34   35 ar
  59   34   39 ar
  60   35   36 ar
  61   35   58 1
  62   36   37 ar
  63   36   59 1
  64   37   38 ar
  65   37   60 1
  66   38   39 ar
  67   38   61 1
  68   39   62 1

#	End of record

