#	Name: ASD03091212
#	Creating user name:	WinNT
#	Creation time:	15. 06. 2019 20:30

#	Modifying user name:	WinNT
#	Modification time:	15. 06. 2019 20:30

#	Program:	/corina/corina34_cracker 3.40 0067  02.08.2006

@<TRIPOS>MOLECULE
ASD03091212
  54   58    0    0    0
SMALL
NO_CHARGES


@<TRIPOS>ATOM
   1 N1            -0.0903     1.3916    -0.0018 N.2     
   2 C2            -0.1475     0.0853     0.0124 C.2     
   3 N3             0.9656    -0.7111     0.0304 N.am    
   4 C4             2.2018    -0.1601     0.0339 C.2     
   5 C5             2.2904     1.3077     0.0177 C.ar    
   6 C6             3.5163     1.9690     0.0194 C.ar    
   7 C7             3.5409     3.3535     0.0032 C.ar    
   8 C8             2.3506     4.0808    -0.0142 C.ar    
   9 C9             1.1417     3.4466    -0.0161 C.ar    
  10 C10            1.0870     2.0494     0.0001 C.ar    
  11 O11            3.2024    -0.8532     0.0503 O.2     
  12 C12            0.8180    -2.1686     0.0465 C.3     
  13 C13            0.6312    -2.6781    -1.3840 C.3     
  14 C14           -1.4765    -0.5616     0.0092 C.ar    
  15 C15           -1.8107    -1.4814     1.0047 C.ar    
  16 C16           -3.0537    -2.0820     0.9957 C.ar    
  17 C17           -3.9676    -1.7732     0.0019 C.ar    
  18 C18           -3.6415    -0.8629    -0.9871 C.ar    
  19 C19           -2.4047    -0.2511    -0.9858 C.ar    
  20 Cl20          -3.4719    -3.2267     2.2320 Cl      
  21 N21            7.5441     4.6245    -0.8280 N.3     
  22 C22            7.2155     3.7887     0.3369 C.3     
  23 C23            5.8835     3.0836     0.1337 C.3     
  24 N24            4.7658     4.0262     0.0047 N.3     
  25 C25            4.9174     4.8470    -1.2048 C.3     
  26 C26            5.6107     6.1597    -0.8721 C.3     
  27 C27            7.0933     6.0048    -0.5994 C.3     
  28 C28            7.1450     4.1081    -2.1197 C.3     
  29 C29            5.6342     4.0369    -2.2695 C.3     
  30 H30            4.4387     1.4074     0.0336 H       
  31 H31            2.3860     5.1601    -0.0260 H       
  32 H32            0.2287     4.0233    -0.0296 H       
  33 H33            1.7112    -2.6195     0.4790 H       
  34 H34           -0.0518    -2.4391     0.6451 H       
  35 H35           -0.2620    -2.2272    -1.8165 H       
  36 H36            1.5010    -2.4076    -1.9826 H       
  37 H37            0.5214    -3.7625    -1.3721 H       
  38 H38           -1.0984    -1.7229     1.7797 H       
  39 H39           -4.9388    -2.2455    -0.0011 H       
  40 H40           -4.3584    -0.6270    -1.7597 H       
  41 H41           -2.1537     0.4633    -1.7558 H       
  42 H42            7.9987     3.0435     0.4765 H       
  43 H43            7.1570     4.4178     1.2251 H       
  44 H44            5.9396     2.4767    -0.7700 H       
  45 H45            5.6970     2.4292     0.9852 H       
  46 H46            3.9214     5.0767    -1.5833 H       
  47 H47            5.4792     6.8462    -1.7085 H       
  48 H48            5.1366     6.5919     0.0091 H       
  49 H49            7.2950     6.2781     0.4363 H       
  50 H50            7.6480     6.6739    -1.2572 H       
  51 H51            7.5474     4.7554    -2.8989 H       
  52 H52            7.5600     3.1079    -2.2441 H       
  53 H53            5.3193     2.9961    -2.1945 H       
  54 H54            5.3572     4.4193    -3.2520 H       
@<TRIPOS>BOND
   1    1    2 2
   2    1   10 1
   3    2    3 1
   4    2   14 1
   5    3    4 am
   6    3   12 1
   7    4    5 1
   8    4   11 2
   9    5    6 ar
  10    5   10 ar
  11    6    7 ar
  12    6   30 1
  13    7    8 ar
  14    7   24 1
  15    8    9 ar
  16    8   31 1
  17    9   10 ar
  18    9   32 1
  19   12   13 1
  20   12   33 1
  21   12   34 1
  22   13   35 1
  23   13   36 1
  24   13   37 1
  25   14   15 ar
  26   14   19 ar
  27   15   16 ar
  28   15   38 1
  29   16   17 ar
  30   16   20 1
  31   17   18 ar
  32   17   39 1
  33   18   19 ar
  34   18   40 1
  35   19   41 1
  36   21   22 1
  37   21   27 1
  38   21   28 1
  39   22   23 1
  40   22   42 1
  41   22   43 1
  42   23   24 1
  43   23   44 1
  44   23   45 1
  45   24   25 1
  46   25   26 1
  47   25   29 1
  48   25   46 1
  49   26   27 1
  50   26   47 1
  51   26   48 1
  52   27   49 1
  53   27   50 1
  54   28   29 1
  55   28   51 1
  56   28   52 1
  57   29   53 1
  58   29   54 1

#	End of record

