#	Name: ASD09720041
#	Creating user name:	WinNT
#	Creation time:	15. 06. 2019 21:22

#	Modifying user name:	WinNT
#	Modification time:	15. 06. 2019 21:22

#	Program:	/corina/corina34_cracker 3.40 0067  02.08.2006

@<TRIPOS>MOLECULE
ASD09720041
  30   31    0    0    0
SMALL
NO_CHARGES


@<TRIPOS>ATOM
   1 C1            -0.0155     1.4719     0.0368 C.ar    
   2 C2             0.0021    -0.0041     0.0020 C.2     
   3 N3             1.1255    -0.6349    -0.1097 N.2     
   4 C4            -1.2891    -0.7754     0.0967 C.3     
   5 O5             2.3238     0.0866    -0.3304 O.3     
   6 S6            -0.9376    -2.5537     0.0262 S.3     
   7 C7            -2.5386    -3.2793     0.1488 C.ar    
   8 C8            -2.6801    -4.6617     0.1300 C.ar    
   9 C9            -3.9363    -5.2268     0.2263 C.ar    
  10 C10           -5.0530    -4.4188     0.3409 C.ar    
  11 C11           -4.9160    -3.0427     0.3595 C.ar    
  12 C12           -3.6624    -2.4707     0.2704 C.ar    
  13 C13            1.0418     2.1721     0.6207 C.ar    
  14 C14            1.0192     3.5512     0.6493 C.ar    
  15 C15           -0.0480     4.2403     0.1011 C.ar    
  16 C16           -1.0990     3.5525    -0.4791 C.ar    
  17 C17           -1.0867     2.1736    -0.5193 C.ar    
  18 H18            1.8362     4.0941     1.1010 H       
  19 H19           -1.9292     4.0966    -0.9049 H       
  20 H20           -1.7846    -0.5401     1.0386 H       
  21 H21           -1.9386    -0.5002    -0.7342 H       
  22 H22            3.1111    -0.4705    -0.4004 H       
  23 H23           -1.8087    -5.2932     0.0398 H       
  24 H24           -4.0471    -6.3010     0.2117 H       
  25 H25           -6.0343    -4.8635     0.4157 H       
  26 H26           -5.7902    -2.4149     0.4488 H       
  27 H27           -3.5562    -1.3960     0.2850 H       
  28 H28            1.8752     1.6354     1.0493 H       
  29 H29           -0.0609     5.3199     0.1265 H       
  30 H30           -1.9077     1.6380    -0.9725 H       
@<TRIPOS>BOND
   1    1    2 1
   2    1   13 ar
   3    1   17 ar
   4    2    3 2
   5    2    4 1
   6    3    5 1
   7    4    6 1
   8    4   20 1
   9    4   21 1
  10    5   22 1
  11    6    7 1
  12    7    8 ar
  13    7   12 ar
  14    8    9 ar
  15    8   23 1
  16    9   10 ar
  17    9   24 1
  18   10   11 ar
  19   10   25 1
  20   11   12 ar
  21   11   26 1
  22   12   27 1
  23   13   14 ar
  24   13   28 1
  25   14   15 ar
  26   14   18 1
  27   15   16 ar
  28   15   29 1
  29   16   17 ar
  30   16   19 1
  31   17   30 1

#	End of record

