#	Name: ASD01812158
#	Creating user name:	WinNT
#	Creation time:	15. 06. 2019 19:28

#	Modifying user name:	WinNT
#	Modification time:	15. 06. 2019 19:28

#	Program:	/corina/corina34_cracker 3.40 0067  02.08.2006

@<TRIPOS>MOLECULE
ASD01812158
  63   67    0    0    0
SMALL
NO_CHARGES


@<TRIPOS>ATOM
   1 C1            -1.0838    -1.0041     1.0615 C.ar    
   2 C2            -0.7277    -2.3153     0.7529 C.ar    
   3 C3             0.5787    -2.6718     0.6087 C.ar    
   4 C4             1.5859    -1.7073     0.7720 C.ar    
   5 C5             1.2237    -0.3713     1.0859 C.ar    
   6 C6            -0.1359    -0.0416     1.2273 C.ar    
   7 C7             2.9450    -2.0419     0.6296 C.ar    
   8 C8             3.9021    -1.0942     0.7912 C.ar    
   9 C9             3.5588     0.2360     1.1032 C.ar    
  10 C10            2.2269     0.5905     1.2482 C.ar    
  11 C11            3.3389    -3.4580     0.2970 C.3     
  12 C12            4.3856     1.4381     1.3281 C.2     
  13 N13            3.6048     2.4972     1.6021 N.am    
  14 C14            2.2036     2.0623     1.5757 C.3     
  15 O15            5.5997     1.4659     1.2737 O.2     
  16 C16            4.0737     3.8570     1.8799 C.3     
  17 C17            4.8577     4.3822     0.6755 C.3     
  18 C18            5.3474     5.8024     0.9657 C.3     
  19 C19            6.2547     5.7873     2.1975 C.3     
  20 C20            5.4708     5.2621     3.4019 C.3     
  21 C21            4.9811     3.8419     3.1117 C.3     
  22 O22            4.0102     4.3963    -0.4750 O.3     
  23 N23            3.1680    -3.6882    -1.1437 N.3     
  24 C24            3.7610    -4.9712    -1.5460 C.3     
  25 C25            3.4928    -5.2099    -3.0338 C.3     
  26 N26            4.0609    -4.1025    -3.8152 N.3     
  27 C27            3.4679    -2.8194    -3.4129 C.3     
  28 C28            3.7360    -2.5807    -1.9251 C.3     
  29 C29            3.8900    -4.3327    -5.2559 C.3     
  30 C30            2.4418    -4.0371    -5.6514 C.3     
  31 F31            2.1848    -2.6710    -5.4932 F       
  32 F32            2.2405    -4.3977    -6.9880 F       
  33 F33            1.5760    -4.7722    -4.8346 F       
  34 H34           -2.1275    -0.7469     1.1662 H       
  35 H35           -1.4993    -3.0602     0.6265 H       
  36 H36            0.8391    -3.6924     0.3701 H       
  37 H37           -0.4267     0.9708     1.4657 H       
  38 H38            4.9421    -1.3633     0.6793 H       
  39 H39            4.3820    -3.6185     0.5694 H       
  40 H40            2.7074    -4.1509     0.8531 H       
  41 H41            1.6559     2.6086     0.8078 H       
  42 H42            1.7431     2.2221     2.5507 H       
  43 H43            3.2178     4.5054     2.0671 H       
  44 H44            5.7136     3.7338     0.4884 H       
  45 H45            5.9059     6.1765     0.1076 H       
  46 H46            4.4914     6.4508     1.1528 H       
  47 H47            7.1107     5.1389     2.0103 H       
  48 H48            6.6036     6.7990     2.4042 H       
  49 H49            6.1172     5.2513     4.2795 H       
  50 H50            4.6148     5.9105     3.5890 H       
  51 H51            4.4226     3.4678     3.9698 H       
  52 H52            5.8370     3.1935     2.9246 H       
  53 H53            4.4423     4.7187    -1.2778 H       
  54 H54            4.8363    -4.9460    -1.3698 H       
  55 H55            3.3153    -5.7767    -0.9624 H       
  56 H56            3.9567    -6.1472    -3.3412 H       
  57 H57            2.4177    -5.2623    -3.2058 H       
  58 H58            3.9135    -2.0139    -3.9965 H       
  59 H59            2.3925    -2.8447    -3.5891 H       
  60 H60            3.2722    -1.6435    -1.6178 H       
  61 H61            4.8111    -2.5283    -1.7532 H       
  62 H62            4.5595    -3.6755    -5.8108 H       
  63 H63            4.1253    -5.3713    -5.4883 H       
@<TRIPOS>BOND
   1    1    2 ar
   2    1    6 ar
   3    1   34 1
   4    2    3 ar
   5    2   35 1
   6    3    4 ar
   7    3   36 1
   8    4    5 ar
   9    4    7 ar
  10    5    6 ar
  11    5   10 ar
  12    6   37 1
  13    7    8 ar
  14    7   11 1
  15    8    9 ar
  16    8   38 1
  17    9   10 ar
  18    9   12 1
  19   10   14 1
  20   11   23 1
  21   11   39 1
  22   11   40 1
  23   12   13 am
  24   12   15 2
  25   13   14 1
  26   13   16 1
  27   14   41 1
  28   14   42 1
  29   16   17 1
  30   16   21 1
  31   16   43 1
  32   17   18 1
  33   17   22 1
  34   17   44 1
  35   18   19 1
  36   18   45 1
  37   18   46 1
  38   19   20 1
  39   19   47 1
  40   19   48 1
  41   20   21 1
  42   20   49 1
  43   20   50 1
  44   21   51 1
  45   21   52 1
  46   22   53 1
  47   23   24 1
  48   23   28 1
  49   24   25 1
  50   24   54 1
  51   24   55 1
  52   25   26 1
  53   25   56 1
  54   25   57 1
  55   26   27 1
  56   26   29 1
  57   27   28 1
  58   27   58 1
  59   27   59 1
  60   28   60 1
  61   28   61 1
  62   29   30 1
  63   29   62 1
  64   29   63 1
  65   30   31 1
  66   30   32 1
  67   30   33 1

#	End of record

