#	Name: ASD03091306
#	Creating user name:	WinNT
#	Creation time:	15. 06. 2019 20:30

#	Modifying user name:	WinNT
#	Modification time:	15. 06. 2019 20:30

#	Program:	/corina/corina34_cracker 3.40 0067  02.08.2006

@<TRIPOS>MOLECULE
ASD03091306
  64   68    0    0    0
SMALL
NO_CHARGES


@<TRIPOS>ATOM
   1 N1             0.1611     1.3433     0.0905 N.2     
   2 C2             0.1954     0.0365     0.1352 C.2     
   3 N3             1.3416    -0.6875    -0.0554 N.am    
   4 C4             2.5145    -0.0598    -0.3046 C.2     
   5 C5             2.4994     1.4096    -0.3598 C.ar    
   6 C6             3.6547     2.1464    -0.6104 C.ar    
   7 C7             3.5828     3.5286    -0.6518 C.ar    
   8 C8             2.3662     4.1789    -0.4448 C.ar    
   9 C9             1.2258     3.4704    -0.1977 C.ar    
  10 C10            1.2690     2.0734    -0.1503 C.ar    
  11 O11            3.5431    -0.6878    -0.4761 O.2     
  12 C12            1.2984    -2.1503     0.0112 C.3     
  13 C13            1.1186    -2.7199    -1.3974 C.3     
  14 C14            0.9947    -4.2429    -1.3198 C.3     
  15 C15           -0.1486    -2.1365    -2.0256 C.3     
  16 C16            2.3301    -2.3499    -2.2556 C.3     
  17 O17            0.8268    -4.7749    -2.6354 O.3     
  18 C18           -1.0612    -0.6922     0.4043 C.ar    
  19 C19           -1.1302    -1.6040     1.4597 C.ar    
  20 C20           -2.3054    -2.2813     1.7064 C.ar    
  21 C21           -3.4171    -2.0588     0.9087 C.ar    
  22 C22           -3.3542    -1.1547    -0.1403 C.ar    
  23 C23           -2.1859    -0.4674    -0.3921 C.ar    
  24 F24           -4.5660    -2.7259     1.1543 F       
  25 N25            7.2498     5.0266    -2.2773 N.3     
  26 C26            7.2139     4.2022    -1.0597 C.3     
  27 C27            5.9180     3.4099    -0.9854 C.3     
  28 N28            4.7365     4.2768    -0.9021 N.3     
  29 C29            4.5915     5.0740    -2.1281 C.3     
  30 C30            5.2478     6.4358    -1.9565 C.3     
  31 C31            6.7620     6.3813    -1.9815 C.3     
  32 C32            6.6391     4.4530    -3.4573 C.3     
  33 C33            5.1366     4.2833    -3.3034 C.3     
  34 H34            4.5975     1.6445    -0.7706 H       
  35 H35            2.3260     5.2576    -0.4801 H       
  36 H36            0.2914     3.9881    -0.0388 H       
  37 H37            2.2301    -2.5223     0.4373 H       
  38 H38            0.4626    -2.4610     0.6381 H       
  39 H39            1.8975    -4.6586    -0.8722 H       
  40 H40            0.1316    -4.5065    -0.7084 H       
  41 H41           -0.0390    -1.0570    -2.1290 H       
  42 H42           -0.3052    -2.5816    -3.0082 H       
  43 H43           -1.0045    -2.3553    -1.3871 H       
  44 H44            3.2329    -2.7656    -1.8081 H       
  45 H45            2.2020    -2.7557    -3.2591 H       
  46 H46            2.4184    -1.2649    -2.3109 H       
  47 H47            0.7414    -5.7377    -2.6624 H       
  48 H48           -0.2644    -1.7786     2.0812 H       
  49 H49           -2.3598    -2.9868     2.5223 H       
  50 H50           -4.2233    -0.9852    -0.7586 H       
  51 H51           -2.1394     0.2404    -1.2065 H       
  52 H52            8.0570     3.5114    -1.0688 H       
  53 H53            7.2899     4.8490    -0.1857 H       
  54 H54            5.8350     2.7846    -1.8744 H       
  55 H55            5.9470     2.7672    -0.1055 H       
  56 H56            3.5273     5.2309    -2.3043 H       
  57 H57            4.9084     7.0909    -2.7589 H       
  58 H58            4.9290     6.8599    -1.0044 H       
  59 H59            7.1453     6.6934    -1.0100 H       
  60 H60            7.1302     7.0667    -2.7448 H       
  61 H61            6.8359     5.1040    -4.3091 H       
  62 H62            7.0872     3.4780    -3.6488 H       
  63 H63            4.9128     3.2271    -3.1541 H       
  64 H64            4.6465     4.6221    -4.2161 H       
@<TRIPOS>BOND
   1    1    2 2
   2    1   10 1
   3    2    3 1
   4    2   18 1
   5    3    4 am
   6    3   12 1
   7    4    5 1
   8    4   11 2
   9    5    6 ar
  10    5   10 ar
  11    6    7 ar
  12    6   34 1
  13    7    8 ar
  14    7   28 1
  15    8    9 ar
  16    8   35 1
  17    9   10 ar
  18    9   36 1
  19   12   13 1
  20   12   37 1
  21   12   38 1
  22   13   14 1
  23   13   15 1
  24   13   16 1
  25   14   17 1
  26   14   39 1
  27   14   40 1
  28   15   41 1
  29   15   42 1
  30   15   43 1
  31   16   44 1
  32   16   45 1
  33   16   46 1
  34   17   47 1
  35   18   19 ar
  36   18   23 ar
  37   19   20 ar
  38   19   48 1
  39   20   21 ar
  40   20   49 1
  41   21   22 ar
  42   21   24 1
  43   22   23 ar
  44   22   50 1
  45   23   51 1
  46   25   26 1
  47   25   31 1
  48   25   32 1
  49   26   27 1
  50   26   52 1
  51   26   53 1
  52   27   28 1
  53   27   54 1
  54   27   55 1
  55   28   29 1
  56   29   30 1
  57   29   33 1
  58   29   56 1
  59   30   31 1
  60   30   57 1
  61   30   58 1
  62   31   59 1
  63   31   60 1
  64   32   33 1
  65   32   61 1
  66   32   62 1
  67   33   63 1
  68   33   64 1

#	End of record

