#	Name: ASD09740552
#	Creating user name:	WinNT
#	Creation time:	15. 06. 2019 21:23

#	Modifying user name:	WinNT
#	Modification time:	15. 06. 2019 21:23

#	Program:	/corina/corina34_cracker 3.40 0067  02.08.2006

@<TRIPOS>MOLECULE
ASD09740552
  64   68    0    0    0
SMALL
NO_CHARGES


@<TRIPOS>ATOM
   1 N1             0.5269     1.6270     0.7970 N.2     
   2 C2             0.5164     0.3441     1.0605 C.2     
   3 C3             1.6743     2.2412     0.8722 C.2     
   4 S4             2.9222     1.0858     1.3311 S.3     
   5 C5             1.7125    -0.1950     1.3827 C.2     
   6 C6             1.8935     3.6792     0.6128 C.ar    
   7 C7             0.8217     4.4937     0.2552 C.ar    
   8 C8             3.1758     4.2235     0.7318 C.ar    
   9 C9             3.3859     5.5643     0.4914 C.ar    
  10 C10            2.3264     6.3840     0.1299 C.ar    
  11 C11            1.0344     5.8496     0.0121 C.ar    
  12 O12            2.5389     7.7032    -0.1047 O.3     
  13 C13            3.8839     8.1733     0.0049 C.3     
  14 C14            4.0457     9.4527    -0.8184 C.3     
  15 C15            4.2034     8.4670     1.4721 C.3     
  16 C16           -0.0609     6.6932    -0.3613 C.1     
  17 N17           -0.9297     7.3624    -0.6575 N.1     
  18 C18            1.9630    -1.6120     1.7199 C.ar    
  19 C19            2.9940    -2.3108     1.0851 C.ar    
  20 C20            3.2226    -3.6334     1.4043 C.ar    
  21 C21            2.4306    -4.2632     2.3518 C.ar    
  22 C22            1.4094    -3.5766     2.9821 C.ar    
  23 C23            1.1744    -2.2524     2.6762 C.ar    
  24 C24            3.9831    -1.8582     0.0327 C.3     
  25 C25            5.1122    -2.9103     0.0613 C.3     
  26 C26            4.3822    -4.1640     0.5882 C.3     
  27 N27            5.2785    -4.9564     1.4338 N.am    
  28 C28            5.0673    -6.2787     1.5860 C.2     
  29 N29            5.9487    -7.0265     2.2791 N.am    
  30 O30            4.0816    -6.7971     1.0980 O.2     
  31 C31            7.0793    -6.4023     2.9827 C.3     
  32 C32            7.0908    -6.9069     4.4296 C.3     
  33 N33            7.0920    -8.3759     4.4325 N.3     
  34 C34            5.8669    -8.9110     3.8236 C.3     
  35 C35            5.8019    -8.4879     2.3569 C.3     
  36 H36           -0.3887    -0.2439     1.0229 H       
  37 H37           -0.1703     4.0761     0.1663 H       
  38 H38            4.0047     3.5911     1.0135 H       
  39 H39            4.3789     5.9784     0.5851 H       
  40 H40            4.5669     7.4110    -0.3701 H       
  41 H41            3.3627    10.2149    -0.4433 H       
  42 H42            5.0717     9.8112    -0.7347 H       
  43 H43            3.8181     9.2434    -1.8636 H       
  44 H44            4.0881     7.5556     2.0586 H       
  45 H45            5.2293     8.8256     1.5557 H       
  46 H46            3.5204     9.2293     1.8471 H       
  47 H47            2.6125    -5.2986     2.5993 H       
  48 H48            0.7978    -4.0766     3.7186 H       
  49 H49            0.3770    -1.7157     3.1686 H       
  50 H50            3.5090    -1.8387    -0.9486 H       
  51 H51            4.3774    -0.8733     0.2828 H       
  52 H52            5.5061    -3.0834    -0.9402 H       
  53 H53            5.9061    -2.6084     0.7444 H       
  54 H54            4.0154    -4.7656    -0.2435 H       
  55 H55            6.0239    -4.5293     1.8841 H       
  56 H56            8.0129    -6.6771     2.4917 H       
  57 H57            6.9629    -5.3185     2.9738 H       
  58 H58            7.9845    -6.5414     4.9352 H       
  59 H59            6.2041    -6.5429     4.9487 H       
  60 H60            7.9131    -8.7377     3.9709 H       
  61 H61            5.8732    -9.9990     3.8898 H       
  62 H62            4.9974    -8.5191     4.3512 H       
  63 H63            4.8426    -8.7843     1.9326 H       
  64 H64            6.6125    -8.9614     1.8030 H       
@<TRIPOS>BOND
   1    1    2 1
   2    1    3 2
   3    2    5 2
   4    2   36 1
   5    3    4 1
   6    3    6 1
   7    4    5 1
   8    5   18 1
   9    6    7 ar
  10    6    8 ar
  11    7   11 ar
  12    7   37 1
  13    8    9 ar
  14    8   38 1
  15    9   10 ar
  16    9   39 1
  17   10   11 ar
  18   10   12 1
  19   11   16 1
  20   12   13 1
  21   13   14 1
  22   13   15 1
  23   13   40 1
  24   14   41 1
  25   14   42 1
  26   14   43 1
  27   15   44 1
  28   15   45 1
  29   15   46 1
  30   16   17 3
  31   18   19 ar
  32   18   23 ar
  33   19   20 ar
  34   19   24 1
  35   20   21 ar
  36   20   26 1
  37   21   22 ar
  38   21   47 1
  39   22   23 ar
  40   22   48 1
  41   23   49 1
  42   24   25 1
  43   24   50 1
  44   24   51 1
  45   25   26 1
  46   25   52 1
  47   25   53 1
  48   26   27 1
  49   26   54 1
  50   27   28 am
  51   27   55 1
  52   28   29 am
  53   28   30 2
  54   29   31 1
  55   29   35 1
  56   31   32 1
  57   31   56 1
  58   31   57 1
  59   32   33 1
  60   32   58 1
  61   32   59 1
  62   33   34 1
  63   33   60 1
  64   34   35 1
  65   34   61 1
  66   34   62 1
  67   35   63 1
  68   35   64 1

#	End of record

