#	Name: ASD01840210
#	Creating user name:	WinNT
#	Creation time:	15. 06. 2019 19:37

#	Modifying user name:	WinNT
#	Modification time:	15. 06. 2019 19:37

#	Program:	/corina/corina34_cracker 3.40 0067  02.08.2006

@<TRIPOS>MOLECULE
ASD01840210
  38   40    0    0    0
SMALL
NO_CHARGES


@<TRIPOS>ATOM
   1 C1            -0.0166     1.3734     0.0096 C.ar    
   2 C2             0.0021    -0.0041     0.0020 C.ar    
   3 N3             1.1533    -0.6539    -0.0125 N.ar    
   4 N4             2.2848    -0.0541    -0.0200 N.ar    
   5 C5             1.2218     2.0548     0.0014 C.ar    
   6 C6             2.8316     3.7742    -0.0055 C.2     
   7 C7             1.5084     3.4774     0.0059 C.2     
   8 C8             2.3874     1.2770    -0.0139 C.ar    
   9 S9             3.8049     2.3167    -0.0224 S.3     
  10 N10            0.5161     4.4483     0.0197 N.pl3   
  11 C11            3.3749     5.1318    -0.0047 C.2     
  12 N12            4.7088     5.3238    -0.0166 N.am    
  13 O13            2.6222     6.0887     0.0069 O.2     
  14 C14            5.2531     6.6839    -0.0157 C.3     
  15 C15            6.7588     6.6224    -0.0305 C.ar    
  16 C16            7.4606     6.5832     1.1598 C.ar    
  17 C17            7.4379     6.5996    -1.2343 C.ar    
  18 C18            8.8190     6.5432    -1.2478 C.ar    
  19 C19            9.5211     6.5102    -0.0575 C.ar    
  20 C20            8.8418     6.5268     1.1463 C.ar    
  21 S21           11.2815     6.4377    -0.0747 S.o2    
  22 C22           11.8060     8.1743    -0.0731 C.3     
  23 O23           11.6186     5.8138     1.1567 O.2     
  24 O24           11.5948     5.8234    -1.3172 O.2     
  25 H25           -0.9500     1.9166     0.0170 H       
  26 H26           -0.9268    -0.5550     0.0083 H       
  27 H27            0.7569     5.3879     0.0220 H       
  28 H28           -0.4180     4.1870     0.0272 H       
  29 H29            5.3085     4.5614    -0.0258 H       
  30 H30            4.9026     7.2161    -0.9000 H       
  31 H31            4.9196     7.2081     0.8798 H       
  32 H32            6.9299     6.5969     2.1003 H       
  33 H33            6.8894     6.6254    -2.1643 H       
  34 H34            9.3495     6.5247    -2.1884 H       
  35 H35            9.3901     6.4965     2.0763 H       
  36 H36           11.4278     8.6672     0.8225 H       
  37 H37           12.8948     8.2250    -0.0833 H       
  38 H38           11.4107     8.6741    -0.9573 H       
@<TRIPOS>BOND
   1    1    2 ar
   2    1    5 ar
   3    1   25 1
   4    2    3 ar
   5    2   26 1
   6    3    4 ar
   7    4    8 ar
   8    5    8 ar
   9    5    7 1
  10    6    7 2
  11    6    9 1
  12    6   11 1
  13    7   10 1
  14    8    9 1
  15   10   27 1
  16   10   28 1
  17   11   12 am
  18   11   13 2
  19   12   14 1
  20   12   29 1
  21   14   15 1
  22   14   30 1
  23   14   31 1
  24   15   17 ar
  25   15   16 ar
  26   16   20 ar
  27   16   32 1
  28   17   18 ar
  29   17   33 1
  30   18   19 ar
  31   18   34 1
  32   19   20 ar
  33   19   21 1
  34   20   35 1
  35   21   22 1
  36   21   23 2
  37   21   24 2
  38   22   36 1
  39   22   37 1
  40   22   38 1

#	End of record

