#	Name: ASD09420002
#	Creating user name:	WinNT
#	Creation time:	15. 06. 2019 21:22

#	Modifying user name:	WinNT
#	Modification time:	15. 06. 2019 21:22

#	Program:	/corina/corina34_cracker 3.40 0067  02.08.2006

@<TRIPOS>MOLECULE
ASD09420002
  97   99    0    0    0
SMALL
NO_CHARGES


@<TRIPOS>ATOM
   1 C1            -0.3134     3.7342     0.0342 C.3     
   2 O2            -0.2616     2.4762     0.7101 O.3     
   3 P3            -1.3336     1.2933     0.0698 P.3     
   4 O4            -0.7880     0.1625     1.2454 O.3     
   5 P5            -1.8032    -1.2157     1.4144 P.3     
   6 O6            -0.4570    -2.1414     1.9521 O.3     
   7 C7            -0.6676    -3.5540     1.9065 C.3     
   8 C8             0.6500    -4.2757     2.1962 C.3     
   9 C9             0.4246    -5.7882     2.1474 C.3     
  10 C10            1.6840    -6.4979     2.5732 C.2     
  11 N11            1.7194    -7.1632     3.7448 N.am    
  12 C12            2.9735    -7.7601     4.2106 C.3     
  13 C13            2.7409    -8.4508     5.5559 C.3     
  14 C14            4.0310    -9.0648     6.0350 C.2     
  15 N15            4.0664    -9.7301     7.2066 N.am    
  16 C16            5.3206   -10.3270     7.6724 C.3     
  17 C17            5.0879   -11.0177     9.0177 C.3     
  18 S18            6.6374   -11.7552     9.5932 S.3     
  19 C19            6.1097   -12.4407    11.0705 C.2     
  20 C20            7.0829   -13.1902    11.9435 C.3     
  21 C21            6.3610   -13.6966    13.1939 C.3     
  22 C22            7.3491   -14.4576    14.0802 C.3     
  23 O23           -1.8791     2.4241    -1.1059 O.co2   
  24 O24           -2.7706    -0.3634     2.5529 O.co2   
  25 O25            4.9522   -12.3231    11.4147 O.2     
  26 O26            5.0374    -8.9603     5.3664 O.2     
  27 O27            2.6657    -6.4703     1.8616 O.2     
  28 C28            1.6896    -3.8809     1.1454 C.3     
  29 C29            1.1536    -3.8797     3.5857 C.3     
  30 O30           -0.6421    -6.1396     3.0310 O.3     
  31 O31           -2.8184    -2.5938     1.5834 O.3     
  32 O32           -0.8047     0.2432    -1.1857 O.3     
  33 O33            2.0321     4.2563     0.4717 O.3     
  34 C34            0.6755     4.7037     0.6847 C.3     
  35 C35            0.6035     6.0859    -0.0013 C.3     
  36 C36            2.0694     6.5740    -0.0171 C.3     
  37 C37            2.8536     5.4289     0.6612 C.3     
  38 O38            0.1039     5.9581    -1.3340 O.3     
  39 P39           -1.2394     6.6869    -1.8406 P.3     
  40 O40           -2.3647     6.3202    -0.9519 O.2     
  41 O41           -1.0287     8.2827    -1.8091 O.3     
  42 O42           -1.5692     6.2187    -3.3453 O.3     
  43 O43            2.5199     6.7625    -1.3601 O.3     
  44 N44            2.6801     5.6820     4.2443 N.2     
  45 C45            2.2393     5.2423     3.1015 C.2     
  46 N46            3.0264     5.7052     2.0894 N.pl3   
  47 C47            4.0104     6.4770     2.6537 C.ar    
  48 N48            5.0407     7.1738     2.1858 N.ar    
  49 C49            5.8321     7.8335     3.0053 C.ar    
  50 N50            5.6513     7.8402     4.3132 N.ar    
  51 C51            4.6476     7.1723     4.8727 C.ar    
  52 C52            3.7750     6.4528     4.0389 C.ar    
  53 N53            4.4664     7.1848     6.2447 N.pl3   
  54 H54           -0.0492     3.5946    -1.0140 H       
  55 H55           -1.3216     4.1426     0.1036 H       
  56 H56           -2.7017     1.1798     0.5954 H       
  57 H57           -2.1270    -1.1528    -0.0181 H       
  58 H58           -1.4082    -3.8353     2.6551 H       
  59 H59           -1.0263    -3.8362     0.9166 H       
  60 H60            0.1666    -6.0845     1.1306 H       
  61 H61            0.9144    -7.2468     4.2796 H       
  62 H62            3.3203    -8.4923     3.4814 H       
  63 H63            3.7257    -6.9800     4.3280 H       
  64 H64            2.3942    -7.7185     6.2851 H       
  65 H65            1.9888    -9.2309     5.4385 H       
  66 H66            3.2615    -9.8137     7.7414 H       
  67 H67            5.6673   -11.0592     6.9432 H       
  68 H68            6.0727    -9.5469     7.7898 H       
  69 H69            4.7412   -10.2855     9.7469 H       
  70 H70            4.3358   -11.7978     8.9003 H       
  71 H71            7.4893   -14.0371    11.3906 H       
  72 H72            7.8947   -12.5247    12.2372 H       
  73 H73            5.9546   -12.8497    13.7468 H       
  74 H74            5.5492   -14.3621    12.9003 H       
  75 H75            6.8348   -14.8184    14.9710 H       
  76 H76            7.7554   -15.3045    13.5273 H       
  77 H77            8.1608   -13.7921    14.3738 H       
  78 H78            1.7683    -2.7946     1.1023 H       
  79 H79            2.6571    -4.3049     1.4142 H       
  80 H80            1.3841    -4.2619     0.1709 H       
  81 H81            0.4130    -4.1610     4.3343 H       
  82 H82            2.0923    -4.3939     3.7921 H       
  83 H83            1.3142    -2.8022     3.6204 H       
  84 H84           -0.4808    -5.9048     3.9551 H       
  85 H85           -2.7762    -3.2073     0.8371 H       
  86 H86           -0.3142    -0.5289    -0.8721 H       
  87 H87            0.4694     4.7962     1.7510 H       
  88 H88           -0.0198     6.7676     0.5775 H       
  89 H89            2.1708     7.4969     0.5539 H       
  90 H90            3.8224     5.2953     0.1797 H       
  91 H91           -0.3057     8.5951    -2.3701 H       
  92 H92           -2.3676     6.6192    -3.7157 H       
  93 H93            3.4346     7.0687    -1.4288 H       
  94 H94            1.3772     4.6044     2.9739 H       
  95 H95            6.6605     8.3899     2.5923 H       
  96 H96            5.0757     7.6851     6.8098 H       
  97 H97            3.7301     6.6934     6.6411 H       
@<TRIPOS>BOND
   1    1    2 1
   2    1   34 1
   3    1   54 1
   4    1   55 1
   5    2    3 1
   6    3    4 1
   7    3   23 ar
   8    3   32 1
   9    3   56 1
  10    4    5 1
  11    5    6 1
  12    5   24 ar
  13    5   31 1
  14    5   57 1
  15    6    7 1
  16    7    8 1
  17    7   58 1
  18    7   59 1
  19    8    9 1
  20    8   28 1
  21    8   29 1
  22    9   10 1
  23    9   30 1
  24    9   60 1
  25   10   11 am
  26   10   27 2
  27   11   12 1
  28   11   61 1
  29   12   13 1
  30   12   62 1
  31   12   63 1
  32   13   14 1
  33   13   64 1
  34   13   65 1
  35   14   15 am
  36   14   26 2
  37   15   16 1
  38   15   66 1
  39   16   17 1
  40   16   67 1
  41   16   68 1
  42   17   18 1
  43   17   69 1
  44   17   70 1
  45   18   19 1
  46   19   20 1
  47   19   25 2
  48   20   21 1
  49   20   71 1
  50   20   72 1
  51   21   22 1
  52   21   73 1
  53   21   74 1
  54   22   75 1
  55   22   76 1
  56   22   77 1
  57   28   78 1
  58   28   79 1
  59   28   80 1
  60   29   81 1
  61   29   82 1
  62   29   83 1
  63   30   84 1
  64   31   85 1
  65   32   86 1
  66   33   34 1
  67   33   37 1
  68   34   35 1
  69   34   87 1
  70   35   36 1
  71   35   38 1
  72   35   88 1
  73   36   37 1
  74   36   43 1
  75   36   89 1
  76   37   46 1
  77   37   90 1
  78   38   39 1
  79   39   40 2
  80   39   41 1
  81   39   42 1
  82   41   91 1
  83   42   92 1
  84   43   93 1
  85   44   45 2
  86   44   52 1
  87   45   46 1
  88   45   94 1
  89   46   47 1
  90   47   48 ar
  91   47   52 ar
  92   48   49 ar
  93   49   50 ar
  94   49   95 1
  95   50   51 ar
  96   51   52 ar
  97   51   53 1
  98   53   96 1
  99   53   97 1

#	End of record

