#	Name: ASD03330864
#	Creating user name:	WinNT
#	Creation time:	15. 06. 2019 20:38

#	Modifying user name:	WinNT
#	Modification time:	15. 06. 2019 20:38

#	Program:	/corina/corina34_cracker 3.40 0067  02.08.2006

@<TRIPOS>MOLECULE
ASD03330864
  63   65    0    0    0
SMALL
NO_CHARGES


@<TRIPOS>ATOM
   1 N1            -0.9652     1.8504     0.8845 N.pl3   
   2 C2            -0.7535     0.5180     0.7704 C.2     
   3 C3             0.5914    -0.1606     0.7700 C.3     
   4 N4             1.3973     0.3638     1.8834 N.3     
   5 C5             2.1588     1.5460     1.4752 C.3     
   6 C6             1.3818     2.3662     0.4491 C.3     
   7 C7             0.0745     2.8669     1.0691 C.3     
   8 C8            -2.3114     2.0602     0.8081 C.2     
   9 N9            -2.9086     0.8999     0.6705 N.2     
  10 C10           -1.9736    -0.0747     0.6464 C.2     
  11 C11           -2.2279    -1.5199     0.5108 C.2     
  12 O12           -1.2974    -2.3030     0.5028 O.2     
  13 N13           -3.4917    -1.9738     0.3956 N.am    
  14 C14            2.2855    -0.6735     2.4247 C.3     
  15 C15           -2.9851     3.3760     0.8706 C.ar    
  16 C16           -3.9604     3.7086    -0.0697 C.ar    
  17 C17           -4.5861     4.9389    -0.0054 C.ar    
  18 C18           -4.2453     5.8405     0.9904 C.ar    
  19 C19           -3.2787     5.5148     1.9241 C.ar    
  20 C20           -2.6516     4.2864     1.8734 C.ar    
  21 C21           -4.3304     2.7287    -1.1532 C.3     
  22 F22           -5.5310     5.2636    -0.9148 F       
  23 C23           -5.0606    -3.6253    -0.4413 C.2     
  24 C24           -3.7445    -3.4105     0.2608 C.3     
  25 C25           -3.7966    -4.0517     1.6491 C.3     
  26 C26           -4.8450    -3.3354     2.5027 C.3     
  27 O27           -5.9337    -2.7872    -0.3626 O.2     
  28 N28           -5.2672    -4.7486    -1.1567 N.am    
  29 C29           -6.5804    -5.0062    -1.7529 C.3     
  30 C30           -4.1709    -5.5291     1.5148 C.3     
  31 C31           -2.4258    -3.9316     2.3179 C.3     
  32 H32            0.4571    -1.2354     0.8922 H       
  33 H33            1.0999     0.0389    -0.1733 H       
  34 H34            2.3584     2.1637     2.3509 H       
  35 H35            3.1056     1.2290     1.0379 H       
  36 H36            1.9841     3.2189     0.1355 H       
  37 H37            1.1572     1.7440    -0.4172 H       
  38 H38           -0.2297     3.7922     0.5798 H       
  39 H39            0.2221     3.0480     2.1337 H       
  40 H40           -4.2339    -1.3493     0.4020 H       
  41 H41            2.9096    -1.0713     1.6245 H       
  42 H42            2.9194    -0.2412     3.1990 H       
  43 H43            1.6867    -1.4776     2.8524 H       
  44 H44           -4.7363     6.8013     1.0372 H       
  45 H45           -3.0171     6.2216     2.6976 H       
  46 H46           -1.9003     4.0322     2.6065 H       
  47 H47           -5.0704     2.0259    -0.7703 H       
  48 H48           -4.7474     3.2678    -2.0038 H       
  49 H49           -3.4410     2.1835    -1.4693 H       
  50 H50           -2.9437    -3.8674    -0.3206 H       
  51 H51           -5.8216    -3.4209     2.0261 H       
  52 H52           -4.8821    -3.7922     3.4917 H       
  53 H53           -4.5783    -2.2829     2.5983 H       
  54 H54           -4.5465    -5.3866    -1.2769 H       
  55 H55           -7.3337    -5.0525    -0.9664 H       
  56 H56           -6.8284    -4.2028    -2.4466 H       
  57 H57           -6.5562    -5.9548    -2.2892 H       
  58 H58           -3.4822    -6.0172     0.8253 H       
  59 H59           -4.1091    -6.0097     2.4911 H       
  60 H60           -5.1882    -5.6128     1.1323 H       
  61 H61           -2.1590    -2.8791     2.4136 H       
  62 H62           -2.4628    -4.3884     3.3069 H       
  63 H63           -1.6788    -4.4419     1.7098 H       
@<TRIPOS>BOND
   1    1    2 1
   2    1    7 1
   3    1    8 1
   4    2    3 1
   5    2   10 2
   6    3    4 1
   7    3   32 1
   8    3   33 1
   9    4    5 1
  10    4   14 1
  11    5    6 1
  12    5   34 1
  13    5   35 1
  14    6    7 1
  15    6   36 1
  16    6   37 1
  17    7   38 1
  18    7   39 1
  19    8    9 2
  20    8   15 1
  21    9   10 1
  22   10   11 1
  23   11   12 2
  24   11   13 am
  25   13   24 1
  26   13   40 1
  27   14   41 1
  28   14   42 1
  29   14   43 1
  30   15   16 ar
  31   15   20 ar
  32   16   17 ar
  33   16   21 1
  34   17   18 ar
  35   17   22 1
  36   18   19 ar
  37   18   44 1
  38   19   20 ar
  39   19   45 1
  40   20   46 1
  41   21   47 1
  42   21   48 1
  43   21   49 1
  44   23   27 2
  45   23   28 am
  46   23   24 1
  47   24   25 1
  48   24   50 1
  49   25   26 1
  50   25   30 1
  51   25   31 1
  52   26   51 1
  53   26   52 1
  54   26   53 1
  55   28   29 1
  56   28   54 1
  57   29   55 1
  58   29   56 1
  59   29   57 1
  60   30   58 1
  61   30   59 1
  62   30   60 1
  63   31   61 1
  64   31   62 1
  65   31   63 1

#	End of record

