#	Name: ASD00480004
#	Creating user name:	WinNT
#	Creation time:	15. 06. 2019 18:36

#	Modifying user name:	WinNT
#	Modification time:	15. 06. 2019 18:36

#	Program:	/corina/corina34_cracker 3.40 0067  02.08.2006

@<TRIPOS>MOLECULE
ASD00480004
  34   37    0    0    0
SMALL
NO_CHARGES


@<TRIPOS>ATOM
   1 P1            -0.0232     1.8593     0.0123 P.3     
   2 S2             0.0021    -0.0041     0.0020 S.2     
   3 O3             1.4824     2.4294     0.0010 O.3     
   4 O4            -0.8346     2.4101    -1.2814 O.3     
   5 C5            -2.2757     2.5425    -1.2357 C.3     
   6 C6            -2.6043     3.3009     0.0350 C.3     
   7 O7            -3.9779     3.6103     0.2561 O.3     
   8 C8            -2.2448     2.4164     1.2596 C.3     
   9 O9            -0.8138     2.3989     1.3339 O.3     
  10 C10           -2.9330     3.1920     2.3903 C.3     
  11 O11           -2.0256     4.1179     2.9914 O.3     
  12 C12           -4.0771     3.9419     1.6629 C.3     
  13 N13           -5.3730     3.5048     2.1882 N.pl3   
  14 C14           -6.1620     2.5202     1.6721 C.2     
  15 N15           -7.2416     2.3945     2.3878 N.2     
  16 C16           -7.2142     3.2878     3.4059 C.ar    
  17 C17           -8.0801     3.6047     4.4661 C.ar    
  18 N18           -9.2749     2.9263     4.6314 N.pl3   
  19 N19           -7.7247     4.5708     5.3069 N.ar    
  20 C20           -6.5865     5.2231     5.1573 C.ar    
  21 N21           -5.7448     4.9606     4.1796 N.ar    
  22 C22           -6.0124     4.0073     3.2932 C.ar    
  23 H23            1.9993     2.1598    -0.7705 H       
  24 H24           -2.6265     3.1003    -2.1040 H       
  25 H25           -2.7401     1.5567    -1.2122 H       
  26 H26           -2.0131     4.2157     0.0770 H       
  27 H27           -2.6461     1.4084     1.1548 H       
  28 H28           -3.3331     2.5072     3.1381 H       
  29 H29           -2.4108     4.6343     3.7125 H       
  30 H30           -3.9620     5.0171     1.7998 H       
  31 H31           -5.9260     1.9313     0.7981 H       
  32 H32           -9.5230     2.2229     4.0113 H       
  33 H33           -9.8643     3.1542     5.3673 H       
  34 H34           -6.3367     6.0014     5.8632 H       
@<TRIPOS>BOND
   1    1    2 2
   2    1    3 1
   3    1    4 1
   4    1    9 1
   5    3   23 1
   6    4    5 1
   7    5    6 1
   8    5   24 1
   9    5   25 1
  10    6    7 1
  11    6    8 1
  12    6   26 1
  13    7   12 1
  14    8    9 1
  15    8   10 1
  16    8   27 1
  17   10   11 1
  18   10   12 1
  19   10   28 1
  20   11   29 1
  21   12   13 1
  22   12   30 1
  23   13   14 1
  24   13   22 1
  25   14   15 2
  26   14   31 1
  27   15   16 1
  28   16   17 ar
  29   16   22 ar
  30   17   18 1
  31   17   19 ar
  32   18   32 1
  33   18   33 1
  34   19   20 ar
  35   20   21 ar
  36   20   34 1
  37   21   22 ar

#	End of record

