#	Name: ASD01910766
#	Creating user name:	WinNT
#	Creation time:	15. 06. 2019 19:56

#	Modifying user name:	WinNT
#	Modification time:	15. 06. 2019 19:56

#	Program:	/corina/corina34_cracker 3.40 0067  02.08.2006

@<TRIPOS>MOLECULE
ASD01910766
  48   51    0    0    0
SMALL
NO_CHARGES


@<TRIPOS>ATOM
   1 C1             0.0488     1.7059    -0.2961 C.ar    
   2 C2             0.0021     0.3187    -0.3262 C.ar    
   3 C3             1.1939    -0.3830    -0.2931 C.ar    
   4 C4             2.3919     0.3211    -0.2310 C.ar    
   5 N5             2.3947     1.6451    -0.2035 N.ar    
   6 C6             1.2737     2.3401    -0.2344 C.ar    
   7 N7             3.5968    -0.3712    -0.1971 N.3     
   8 C8             4.7348     0.5555    -0.1329 C.3     
   9 C9             6.0259    -0.2406     0.0850 C.3     
  10 N10            6.1213    -1.2712    -0.9600 N.am    
  11 C11            4.9633    -2.1517    -1.1767 C.3     
  12 C12            3.7140    -1.2804    -1.3450 C.3     
  13 C13            7.2404    -1.4055    -1.6989 C.2     
  14 C14            7.3645    -2.5261    -2.6556 C.ar    
  15 O15            8.1475    -0.6055    -1.5790 O.2     
  16 C16            7.9757    -2.3339    -3.8962 C.ar    
  17 N17            8.0906    -3.3261    -4.7554 N.ar    
  18 C18            7.6407    -4.5355    -4.4911 C.ar    
  19 C19            7.0150    -4.8175    -3.2727 C.ar    
  20 C20            6.8771    -3.7944    -2.3289 C.ar    
  21 C21            6.5278    -6.1348    -2.9935 C.1     
  22 C22            6.1283    -7.2147    -2.7645 C.1     
  23 C23            5.6411    -8.5320    -2.4852 C.ar    
  24 C24            5.0170    -8.8057    -1.2653 C.ar    
  25 C25            4.5498   -10.0767    -1.0036 C.ar    
  26 C26            4.6979   -11.0796    -1.9454 C.ar    
  27 C27            5.3153   -10.8161    -3.1555 C.ar    
  28 C28            5.7823    -9.5485    -3.4336 C.ar    
  29 H29           -0.8635     2.2832    -0.3252 H       
  30 H30           -0.9435    -0.2010    -0.3741 H       
  31 H31            1.1941    -1.4628    -0.3147 H       
  32 H32            1.3146     3.4191    -0.2104 H       
  33 H33            4.8039     1.1119    -1.0677 H       
  34 H34            4.5918     1.2503     0.6946 H       
  35 H35            6.8840     0.4283     0.0191 H       
  36 H36            6.0023    -0.7150     1.0661 H       
  37 H37            5.1189    -2.7464    -2.0769 H       
  38 H38            4.8376    -2.8098    -0.3170 H       
  39 H39            2.8307    -1.9170    -1.3965 H       
  40 H40            3.7974    -0.6984    -2.2629 H       
  41 H41            8.3593    -1.3581    -4.1553 H       
  42 H42            7.7562    -5.3194    -5.2249 H       
  43 H43            6.3994    -3.9773    -1.3777 H       
  44 H44            4.9010    -8.0241    -0.5292 H       
  45 H45            4.0675   -10.2899    -0.0610 H       
  46 H46            4.3301   -12.0730    -1.7350 H       
  47 H47            5.4277   -11.6038    -3.8857 H       
  48 H48            6.2637    -9.3441    -4.3785 H       
@<TRIPOS>BOND
   1    1    2 ar
   2    1    6 ar
   3    1   29 1
   4    2    3 ar
   5    2   30 1
   6    3    4 ar
   7    3   31 1
   8    4    5 ar
   9    4    7 1
  10    5    6 ar
  11    6   32 1
  12    7    8 1
  13    7   12 1
  14    8    9 1
  15    8   33 1
  16    8   34 1
  17    9   10 1
  18    9   35 1
  19    9   36 1
  20   10   11 1
  21   10   13 am
  22   11   12 1
  23   11   37 1
  24   11   38 1
  25   12   39 1
  26   12   40 1
  27   13   14 1
  28   13   15 2
  29   14   16 ar
  30   14   20 ar
  31   16   17 ar
  32   16   41 1
  33   17   18 ar
  34   18   19 ar
  35   18   42 1
  36   19   20 ar
  37   19   21 1
  38   20   43 1
  39   21   22 3
  40   22   23 1
  41   23   24 ar
  42   23   28 ar
  43   24   25 ar
  44   24   44 1
  45   25   26 ar
  46   25   45 1
  47   26   27 ar
  48   26   46 1
  49   27   28 ar
  50   27   47 1
  51   28   48 1

#	End of record

