#	Name: ASD01320002
#	Creating user name:	WinNT
#	Creation time:	15. 06. 2019 19:15

#	Modifying user name:	WinNT
#	Modification time:	15. 06. 2019 19:15

#	Program:	/corina/corina34_cracker 3.40 0067  02.08.2006

@<TRIPOS>MOLECULE
ASD01320002
  43   45    0    0    0
SMALL
NO_CHARGES


@<TRIPOS>ATOM
   1 C1            -0.0070     1.6757     0.1791 C.ar    
   2 C2             0.0099     0.2960     0.2615 C.ar    
   3 C3             1.2035    -0.3927     0.1144 C.ar    
   4 C4             2.3847     0.3093    -0.1169 C.ar    
   5 C5             2.3595     1.6941    -0.1987 C.ar    
   6 C6             1.1650     2.3730    -0.0505 C.ar    
   7 O7             1.2219    -1.7496     0.1961 O.3     
   8 C8             0.0421    -2.3924     0.3857 C.ar    
   9 C9            -0.8088    -2.6085    -0.6912 C.ar    
  10 C10           -2.0175    -3.2673    -0.4986 C.ar    
  11 C11           -2.3713    -3.7121     0.7908 C.ar    
  12 C12           -1.5064    -3.4874     1.8609 C.ar    
  13 C13           -0.3074    -2.8371     1.6555 C.ar    
  14 N14            3.5939    -0.3808    -0.2659 N.am    
  15 C15            4.7539     0.2087     0.0850 C.2     
  16 C16            6.0159    -0.5599     0.0430 C.ar    
  17 O17            4.7625     1.3726     0.4361 O.2     
  18 C18            7.2187     0.0476     0.4058 C.ar    
  19 C19            8.3940    -0.6763     0.3642 C.ar    
  20 C20            8.3799    -2.0015    -0.0363 C.ar    
  21 C21            7.1902    -2.6086    -0.3975 C.ar    
  22 C22            6.0086    -1.8983    -0.3543 C.ar    
  23 Cl23           9.8920     0.0769     0.8143 Cl      
  24 C24           -2.9275    -3.4997    -1.6407 C.2     
  25 O25           -3.3093    -4.6245    -1.8938 O.2     
  26 O26           -3.3331    -2.4639    -2.4004 O.3     
  27 C27           -3.6523    -4.4122     1.0077 C.2     
  28 O28           -4.4545    -4.5060     0.1002 O.2     
  29 O29           -3.9319    -4.9476     2.2121 O.3     
  30 H30           -0.9388     2.2104     0.2900 H       
  31 H31           -0.9072    -0.2454     0.4409 H       
  32 H32            3.2732     2.2414    -0.3776 H       
  33 H33            1.1466     3.4510    -0.1147 H       
  34 H34           -0.5316    -2.2647    -1.6767 H       
  35 H35           -1.7735    -3.8266     2.8508 H       
  36 H36            0.3599    -2.6654     2.4872 H       
  37 H37            3.5966    -1.2832    -0.6217 H       
  38 H38            7.2305     1.0815     0.7179 H       
  39 H39            9.3016    -2.5637    -0.0673 H       
  40 H40            7.1861    -3.6425    -0.7096 H       
  41 H41            5.0809    -2.3737    -0.6365 H       
  42 H42           -3.9277    -2.6653    -3.1359 H       
  43 H43           -4.7833    -5.3964     2.3061 H       
@<TRIPOS>BOND
   1    1    2 ar
   2    1    6 ar
   3    1   30 1
   4    2    3 ar
   5    2   31 1
   6    3    4 ar
   7    3    7 1
   8    4    5 ar
   9    4   14 1
  10    5    6 ar
  11    5   32 1
  12    6   33 1
  13    7    8 1
  14    8    9 ar
  15    8   13 ar
  16    9   10 ar
  17    9   34 1
  18   10   11 ar
  19   10   24 1
  20   11   12 ar
  21   11   27 1
  22   12   13 ar
  23   12   35 1
  24   13   36 1
  25   14   15 am
  26   14   37 1
  27   15   16 1
  28   15   17 2
  29   16   18 ar
  30   16   22 ar
  31   18   19 ar
  32   18   38 1
  33   19   20 ar
  34   19   23 1
  35   20   21 ar
  36   20   39 1
  37   21   22 ar
  38   21   40 1
  39   22   41 1
  40   24   25 2
  41   24   26 1
  42   26   42 1
  43   27   28 2
  44   27   29 1
  45   29   43 1

#	End of record

