#	Name: ASD04930052
#	Creating user name:	WinNT
#	Creation time:	15. 06. 2019 20:56

#	Modifying user name:	WinNT
#	Modification time:	15. 06. 2019 20:56

#	Program:	/corina/corina34_cracker 3.40 0067  02.08.2006

@<TRIPOS>MOLECULE
ASD04930052
  51   52    0    0    0
SMALL
NO_CHARGES


@<TRIPOS>ATOM
   1 N1             1.2531     1.2250    -1.7253 N.am    
   2 C2             1.2884    -0.1120    -1.5951 C.2     
   3 C3             1.2174    -0.7400    -0.2764 C.2     
   4 C4             1.1115     0.0708     0.8561 C.2     
   5 C5             1.0764     1.5249     0.6686 C.ar    
   6 C6             0.9707     2.3827     1.7696 C.ar    
   7 C7             0.9389     3.7345     1.5769 C.ar    
   8 C8             1.0101     4.2653     0.2964 C.ar    
   9 C9             1.1144     3.4396    -0.8017 C.ar    
  10 C10            1.1492     2.0581    -0.6304 C.ar    
  11 C11            1.2562    -2.2016    -0.1447 C.2     
  12 O12            2.3147    -2.7935    -0.2438 O.2     
  13 N13            0.1194    -2.8879     0.0859 N.am    
  14 N14           -1.0802    -2.2005     0.3123 N.am    
  15 O15            1.3804    -0.8103    -2.5890 O.2     
  16 C16           -2.0095    -2.1282    -0.6611 C.2     
  17 C17           -3.2999    -1.3887    -0.4175 C.3     
  18 C18           -4.1720    -1.4578    -1.6727 C.3     
  19 C19           -5.4820    -0.7071    -1.4254 C.3     
  20 C20           -6.3542    -0.7761    -2.6806 C.3     
  21 C21           -7.6642    -0.0254    -2.4333 C.3     
  22 C22           -8.5364    -0.0944    -3.6885 C.3     
  23 C23           -9.8464     0.6563    -3.4412 C.3     
  24 O24           -1.8074    -2.6582    -1.7331 O.2     
  25 O25            1.0430    -0.4698     2.0905 O.3     
  26 C26            0.1381    -4.3527     0.0997 C.3     
  27 H27            1.3061     1.6147    -2.6120 H       
  28 H28            0.9142     1.9767     2.7688 H       
  29 H29            0.8574     4.3953     2.4273 H       
  30 H30            0.9831     5.3363     0.1593 H       
  31 H31            1.1688     3.8632    -1.7937 H       
  32 H32           -1.2418    -1.7766     1.1696 H       
  33 H33           -3.8289    -1.8468     0.4182 H       
  34 H34           -3.0827    -0.3467    -0.1829 H       
  35 H35           -3.6429    -0.9998    -2.5084 H       
  36 H36           -4.3891    -2.4999    -1.9074 H       
  37 H37           -6.0111    -1.1651    -0.5897 H       
  38 H38           -5.2649     0.3350    -1.1908 H       
  39 H39           -5.8251    -0.3181    -3.5163 H       
  40 H40           -6.5713    -1.8182    -2.9153 H       
  41 H41           -8.1933    -0.4834    -1.5976 H       
  42 H42           -7.4471     1.0167    -2.1987 H       
  43 H43           -8.0073     0.3636    -4.5242 H       
  44 H44           -8.7535    -1.1365    -3.9232 H       
  45 H45          -10.3754     0.1983    -2.6055 H       
  46 H46           -9.6292     1.6984    -3.2066 H       
  47 H47          -10.4677     0.6071    -4.3354 H       
  48 H48            0.9972    -1.4357     2.0949 H       
  49 H49            0.3400    -4.7040     1.1116 H       
  50 H50           -0.8293    -4.7316    -0.2301 H       
  51 H51            0.9174    -4.7125    -0.5720 H       
@<TRIPOS>BOND
   1    1    2 am
   2    1   10 1
   3    1   27 1
   4    2    3 1
   5    2   15 2
   6    3    4 2
   7    3   11 1
   8    4    5 1
   9    4   25 1
  10    5    6 ar
  11    5   10 ar
  12    6    7 ar
  13    6   28 1
  14    7    8 ar
  15    7   29 1
  16    8    9 ar
  17    8   30 1
  18    9   10 ar
  19    9   31 1
  20   11   12 2
  21   11   13 am
  22   13   14 1
  23   13   26 1
  24   14   16 am
  25   14   32 1
  26   16   17 1
  27   16   24 2
  28   17   18 1
  29   17   33 1
  30   17   34 1
  31   18   19 1
  32   18   35 1
  33   18   36 1
  34   19   20 1
  35   19   37 1
  36   19   38 1
  37   20   21 1
  38   20   39 1
  39   20   40 1
  40   21   22 1
  41   21   41 1
  42   21   42 1
  43   22   23 1
  44   22   43 1
  45   22   44 1
  46   23   45 1
  47   23   46 1
  48   23   47 1
  49   25   48 1
  50   26   49 1
  51   26   50 1
  52   26   51 1

#	End of record

