#	Name: ASD01816755
#	Creating user name:	WinNT
#	Creation time:	15. 06. 2019 19:35

#	Modifying user name:	WinNT
#	Modification time:	15. 06. 2019 19:35

#	Program:	/corina/corina34_cracker 3.40 0067  02.08.2006

@<TRIPOS>MOLECULE
ASD01816755
  57   60    0    0    0
SMALL
NO_CHARGES


@<TRIPOS>ATOM
   1 C1            -0.0167     1.3960     0.0136 C.2     
   2 C2             0.0025    -0.0052    -0.0037 C.2     
   3 C3             1.1989    -0.6602    -0.0251 C.2     
   4 C4             2.3922     0.0815    -0.0294 C.2     
   5 N5             2.3439     1.4491    -0.0118 N.am    
   6 C6             1.1420     2.0927     0.0091 C.2     
   7 C7             3.6230    -0.5886    -0.0513 C.2     
   8 C8             4.7879     0.1231    -0.0557 C.2     
   9 C9             4.7340     1.5284    -0.0381 C.2     
  10 C10            3.4813     2.1731    -0.0159 C.2     
  11 C11            3.6605    -2.0951    -0.0695 C.3     
  12 O12            3.4256     3.3913    -0.0006 O.2     
  13 C13            5.9710     2.3159    -0.0418 C.2     
  14 N14            7.1647     1.6963     0.0459 N.am    
  15 O15            5.9198     3.5292    -0.1240 O.2     
  16 N16            3.7776    -2.5653    -1.4562 N.3     
  17 C17            4.0544    -4.0067    -1.5015 C.3     
  18 C18            4.3137    -4.4325    -2.9485 C.3     
  19 C19            3.0848    -4.1027    -3.8004 C.3     
  20 C20            2.7893    -2.6039    -3.6973 C.3     
  21 C21            2.5743    -2.2311    -2.2286 C.3     
  22 C22            3.3567    -4.4647    -5.2378 C.ar    
  23 N23            4.5945    -4.6960    -5.6286 N.ar    
  24 C24            4.8797    -5.0158    -6.8759 C.ar    
  25 C25            3.8807    -5.1198    -7.8250 C.ar    
  26 C26            2.5663    -4.8838    -7.4513 C.ar    
  27 C27            2.3048    -4.5560    -6.1299 C.ar    
  28 C28            1.9266    -4.8673    -3.3098 C.1     
  29 N29            1.0328    -5.4574    -2.9312 N.1     
  30 C30            8.4025     2.4710    -0.0711 C.3     
  31 C31            9.5869     1.5486     0.0610 C.2     
  32 C32           10.5015     1.5185    -0.8763 C.2     
  33 H33           -0.9603     1.9212     0.0261 H       
  34 H34           -0.9228    -0.5622     0.0002 H       
  35 H35            1.2286    -1.7397    -0.0383 H       
  36 H36            1.1153     3.1723     0.0228 H       
  37 H37            5.7397    -0.3869    -0.0721 H       
  38 H38            4.5177    -2.4442     0.5062 H       
  39 H39            2.7434    -2.4866     0.3707 H       
  40 H40            7.2041     0.7373     0.1865 H       
  41 H41            4.9330    -4.2271    -0.8952 H       
  42 H42            3.1967    -4.5537    -1.1102 H       
  43 H43            5.1798    -3.8960    -3.3360 H       
  44 H44            4.5037    -5.5052    -2.9837 H       
  45 H45            3.6314    -2.0386    -4.0966 H       
  46 H46            1.8903    -2.3701    -4.2675 H       
  47 H47            1.7235    -2.7864    -1.8339 H       
  48 H48            2.3777    -1.1618    -2.1504 H       
  49 H49            5.9059    -5.1981    -7.1590 H       
  50 H50            4.1206    -5.3814    -8.8450 H       
  51 H51            1.7650    -4.9575    -8.1716 H       
  52 H52            1.2930    -4.3660    -5.8036 H       
  53 H53            8.4324     2.9636    -1.0430 H       
  54 H54            8.4371     3.2220     0.7181 H       
  55 H55            9.6816     0.9122     0.9285 H       
  56 H56           11.3503     0.8575    -0.7816 H       
  57 H57           10.4068     2.1549    -1.7438 H       
@<TRIPOS>BOND
   1    1    2 1
   2    1    6 2
   3    1   33 1
   4    2    3 2
   5    2   34 1
   6    3    4 1
   7    3   35 1
   8    4    5 1
   9    4    7 2
  10    5    6 1
  11    5   10 am
  12    6   36 1
  13    7    8 1
  14    7   11 1
  15    8    9 2
  16    8   37 1
  17    9   10 1
  18    9   13 1
  19   10   12 2
  20   11   16 1
  21   11   38 1
  22   11   39 1
  23   13   15 2
  24   13   14 am
  25   14   30 1
  26   14   40 1
  27   16   17 1
  28   16   21 1
  29   17   18 1
  30   17   41 1
  31   17   42 1
  32   18   19 1
  33   18   43 1
  34   18   44 1
  35   19   20 1
  36   19   22 1
  37   19   28 1
  38   20   21 1
  39   20   45 1
  40   20   46 1
  41   21   47 1
  42   21   48 1
  43   22   23 ar
  44   22   27 ar
  45   23   24 ar
  46   24   25 ar
  47   24   49 1
  48   25   26 ar
  49   25   50 1
  50   26   27 ar
  51   26   51 1
  52   27   52 1
  53   28   29 3
  54   30   31 1
  55   30   53 1
  56   30   54 1
  57   31   32 2
  58   31   55 1
  59   32   56 1
  60   32   57 1

#	End of record

