#	Name: ASD02508340
#	Creating user name:	WinNT
#	Creation time:	15. 06. 2019 20:24

#	Modifying user name:	WinNT
#	Modification time:	15. 06. 2019 20:24

#	Program:	/corina/corina34_cracker 3.40 0067  02.08.2006

@<TRIPOS>MOLECULE
ASD02508340
  44   47    0    0    0
SMALL
NO_CHARGES


@<TRIPOS>ATOM
   1 C1            -0.0170     1.4025     0.0098 C.ar    
   2 C2             0.0021    -0.0041     0.0020 C.ar    
   3 C3            -1.2014    -0.7021     0.0097 C.ar    
   4 C4            -2.3929    -0.0111     0.0248 C.ar    
   5 C5            -2.4064     1.3772     0.0324 C.ar    
   6 C6            -1.2363     2.0826     0.0301 C.ar    
   7 S7            -3.9154    -0.8980     0.0340 S.o2    
   8 C8            -4.3503    -1.1702     1.7196 C.ar    
   9 C9            -5.1234    -0.2420     2.3911 C.ar    
  10 C10           -3.9225    -2.3146     2.3665 C.ar    
  11 C11           -4.2639    -2.5317     3.6927 C.ar    
  12 C12           -5.0351    -1.5944     4.3704 C.ar    
  13 C13           -5.4658    -0.4515     3.7140 C.ar    
  14 O14           -3.8415    -3.6664     4.3144 O.3     
  15 C15           -3.8872    -3.6714     5.7454 C.3     
  16 C16           -5.2486    -3.1160     6.1850 C.3     
  17 O17           -5.3756    -1.7844     5.6744 O.3     
  18 C18            1.3852     1.8263    -0.0014 C.2     
  19 C19            2.1322     0.7111    -0.0145 C.2     
  20 N20            1.3230    -0.3923    -0.0127 N.am    
  21 O21           -4.8962    -0.0171    -0.4963 O.2     
  22 O22           -3.6381    -2.1767    -0.5204 O.2     
  23 S23            1.8534    -1.9610    -0.0261 S.o2    
  24 C24            1.3109    -2.6359     1.5679 C.3     
  25 O25            1.1353    -2.5646    -1.0935 O.2     
  26 O26            3.2696    -1.8518    -0.0654 O.2     
  27 C27            1.8928     3.2453     0.0010 C.3     
  28 H28           -1.2014    -1.7820     0.0036 H       
  29 H29           -3.3493     1.9037     0.0443 H       
  30 H30           -1.2545     3.1624     0.0360 H       
  31 H31           -5.4602     0.6487     1.8816 H       
  32 H32           -3.3220    -3.0404     1.8382 H       
  33 H33           -6.0663     0.2776     4.2377 H       
  34 H34           -3.7699    -4.6907     6.1133 H       
  35 H35           -3.0890    -3.0432     6.1408 H       
  36 H36           -6.0471    -3.7408     5.7847 H       
  37 H37           -5.3048    -3.0993     7.2734 H       
  38 H38            3.2119     0.6881    -0.0249 H       
  39 H39            0.2249    -2.5742     1.6380 H       
  40 H40            1.6214    -3.6779     1.6458 H       
  41 H41            1.7606    -2.0613     2.3777 H       
  42 H42            2.0248     3.5822     1.0291 H       
  43 H43            2.8482     3.2902    -0.5217 H       
  44 H44            1.1724     3.8897    -0.5029 H       
@<TRIPOS>BOND
   1    1    2 ar
   2    1   18 1
   3    1    6 ar
   4    2    3 ar
   5    2   20 1
   6    3    4 ar
   7    3   28 1
   8    4    5 ar
   9    4    7 1
  10    5    6 ar
  11    5   29 1
  12    6   30 1
  13    7    8 1
  14    7   21 2
  15    7   22 2
  16    8    9 ar
  17    8   10 ar
  18    9   13 ar
  19    9   31 1
  20   10   11 ar
  21   10   32 1
  22   11   12 ar
  23   11   14 1
  24   12   13 ar
  25   12   17 1
  26   13   33 1
  27   14   15 1
  28   15   16 1
  29   15   34 1
  30   15   35 1
  31   16   17 1
  32   16   36 1
  33   16   37 1
  34   18   19 2
  35   18   27 1
  36   19   20 1
  37   19   38 1
  38   20   23 am
  39   23   24 1
  40   23   25 2
  41   23   26 2
  42   24   39 1
  43   24   40 1
  44   24   41 1
  45   27   42 1
  46   27   43 1
  47   27   44 1

#	End of record

