#	Name: ASD00844198
#	Creating user name:	WinNT
#	Creation time:	15. 06. 2019 18:49

#	Modifying user name:	WinNT
#	Modification time:	15. 06. 2019 18:49

#	Program:	/corina/corina34_cracker 3.40 0067  02.08.2006

@<TRIPOS>MOLECULE
ASD00844198
  94   99    0    0    0
SMALL
NO_CHARGES


@<TRIPOS>ATOM
   1 C1            -0.0139     1.3805     0.0279 C.ar    
   2 C2             0.0035    -0.0064     0.0123 C.ar    
   3 C3             1.2150    -0.6825    -0.0057 C.ar    
   4 C4             2.4003     0.0266    -0.0081 C.ar    
   5 C5             2.3802     1.4092     0.0080 C.ar    
   6 C6             1.1745     2.0852     0.0254 C.ar    
   7 C7             1.2376    -2.1893    -0.0222 C.3     
   8 C8             0.4951    -2.7176    -1.2310 C.2     
   9 N9             2.6177    -2.6807    -0.0123 N.am    
  10 C10            3.4635    -2.3343    -1.0027 C.2     
  11 N11            4.7591    -2.7005    -0.9414 N.am    
  12 O12            3.0578    -1.6913    -1.9516 O.2     
  13 C13            5.2904    -3.3764     0.2501 C.3     
  14 C14            6.5168    -2.6055     0.7485 C.3     
  15 C15            7.5241    -2.4629    -0.3948 C.3     
  16 C16            6.8891    -1.6717    -1.5407 C.3     
  17 C17            5.6656    -2.4371    -2.0673 C.3     
  18 C18            8.7653    -1.7235     0.1087 C.3     
  19 C19            9.4028    -2.5147     1.2541 C.3     
  20 C20           10.6771    -1.8020     1.7127 C.3     
  21 N21           11.6131    -1.6970     0.5861 N.3     
  22 C22           11.0409    -0.9011    -0.5073 C.3     
  23 C23            9.7775    -1.5870    -1.0321 C.3     
  24 C24           12.9017    -1.1427     1.0223 C.3     
  25 O25            0.7748    -2.5146    -2.3936 O.2     
  26 N26           -0.5321    -3.4534    -0.7741 N.am    
  27 C27            0.4667    -2.7433     1.1540 C.ar    
  28 C28           -0.5774    -3.4889     0.6206 C.ar    
  29 C29            0.6297    -2.6303     2.5163 C.ar    
  30 C30           -0.2541    -3.2648     3.3730 C.ar    
  31 C31           -1.2997    -4.0116     2.8537 C.ar    
  32 C32           -1.4637    -4.1253     1.4864 C.ar    
  33 Cl33          -0.0525    -3.1258     5.0916 Cl      
  34 F34           -2.1627    -4.6313     3.6883 F       
  35 C35           -0.9832    -5.8425    -2.0638 C.ar    
  36 C36            0.1959    -5.9980    -2.7778 C.ar    
  37 C37           -1.6552    -6.9535    -1.5917 C.ar    
  38 C38           -1.1532    -8.2194    -1.8299 C.ar    
  39 C39            0.0221    -8.3771    -2.5414 C.ar    
  40 C40            0.6974    -7.2696    -3.0159 C.ar    
  41 H41            0.4122    -9.3671    -2.7262 H       
  42 O42            0.8585    -4.9067    -3.2436 O.3     
  43 C43            2.0660    -5.1423    -3.9706 C.3     
  44 C44            2.6652    -3.8052    -4.4111 C.3     
  45 C45           13.9241    -1.2785    -0.1079 C.3     
  46 S46           -1.6195    -4.2290    -1.7530 S.o2    
  47 O47           -2.7997    -4.4049    -0.9815 O.2     
  48 O48           -1.5995    -3.5432    -2.9974 O.2     
  49 O49           -1.1641    -0.7019     0.0151 O.3     
  50 C50           -2.3729     0.0600     0.0344 C.3     
  51 C51           -3.5735    -0.8885     0.0347 C.3     
  52 F52           -3.5410    -1.6823    -1.1168 F       
  53 F53           -3.5204    -1.7077     1.1675 F       
  54 H54           -0.9557     1.9091     0.0374 H       
  55 H55            3.3436    -0.4992    -0.0220 H       
  56 H56            3.3081     1.9619     0.0068 H       
  57 H57            1.1614     3.1651     0.0379 H       
  58 H58            2.9227    -3.2554     0.7071 H       
  59 H59            4.5288    -3.3950     1.0296 H       
  60 H60            5.5789    -4.3958    -0.0062 H       
  61 H61            6.2109    -1.6164     1.0894 H       
  62 H62            6.9774    -3.1488     1.5736 H       
  63 H63            7.8107    -3.4521    -0.7517 H       
  64 H64            6.5797    -0.6914    -1.1782 H       
  65 H65            7.6147    -1.5504    -2.3449 H       
  66 H66            5.9874    -3.3786    -2.5124 H       
  67 H67            5.1514    -1.8337    -2.8154 H       
  68 H68            8.4802    -0.7334     0.4644 H       
  69 H69            8.7019    -2.5786     2.0865 H       
  70 H70            9.6513    -3.5184     0.9090 H       
  71 H71           10.4260    -0.8035     2.0705 H       
  72 H72           11.1411    -2.3705     2.5187 H       
  73 H73           10.7881     0.0931    -0.1390 H       
  74 H74           11.7692    -0.8153    -1.3137 H       
  75 H75           10.0318    -2.5760    -1.4132 H       
  76 H76            9.3443    -0.9880    -1.8332 H       
  77 H77           12.7774    -0.0897     1.2751 H       
  78 H78           13.2538    -1.6876     1.8982 H       
  79 H79            1.4462    -2.0476     2.9165 H       
  80 H80           -2.2808    -4.7086     1.0883 H       
  81 H81           -2.5732    -6.8330    -1.0358 H       
  82 H82           -1.6796    -9.0866    -1.4594 H       
  83 H83            1.6148    -7.3933    -3.5722 H       
  84 H84            2.7775    -5.6669    -3.3329 H       
  85 H85            1.8486    -5.7500    -4.8490 H       
  86 H86            1.9537    -3.2807    -5.0487 H       
  87 H87            2.8827    -3.1976    -3.5327 H       
  88 H88            3.5863    -3.9850    -4.9656 H       
  89 H89           14.0484    -2.3315    -0.3607 H       
  90 H90           13.5719    -0.7337    -0.9838 H       
  91 H91           14.8802    -0.8672     0.2157 H       
  92 H92           -2.3983     0.6784     0.9316 H       
  93 H93           -2.4143     0.6982    -0.8482 H       
  94 H94           -4.4956    -0.3074     0.0495 H       
@<TRIPOS>BOND
   1    1    2 ar
   2    1    6 ar
   3    1   54 1
   4    2    3 ar
   5    2   49 1
   6    3    4 ar
   7    3    7 1
   8    4    5 ar
   9    4   55 1
  10    5    6 ar
  11    5   56 1
  12    6   57 1
  13    7    8 1
  14    7    9 1
  15    7   27 1
  16    8   25 2
  17    8   26 am
  18    9   10 am
  19    9   58 1
  20   10   11 am
  21   10   12 2
  22   11   13 1
  23   11   17 1
  24   13   14 1
  25   13   59 1
  26   13   60 1
  27   14   15 1
  28   14   61 1
  29   14   62 1
  30   15   16 1
  31   15   18 1
  32   15   63 1
  33   16   17 1
  34   16   64 1
  35   16   65 1
  36   17   66 1
  37   17   67 1
  38   18   19 1
  39   18   23 1
  40   18   68 1
  41   19   20 1
  42   19   69 1
  43   19   70 1
  44   20   21 1
  45   20   71 1
  46   20   72 1
  47   21   22 1
  48   21   24 1
  49   22   23 1
  50   22   73 1
  51   22   74 1
  52   23   75 1
  53   23   76 1
  54   24   45 1
  55   24   77 1
  56   24   78 1
  57   26   46 am
  58   26   28 1
  59   27   28 ar
  60   27   29 ar
  61   28   32 ar
  62   29   30 ar
  63   29   79 1
  64   30   31 ar
  65   30   33 1
  66   31   32 ar
  67   31   34 1
  68   32   80 1
  69   35   36 ar
  70   35   37 ar
  71   35   46 1
  72   36   42 1
  73   36   40 ar
  74   37   38 ar
  75   37   81 1
  76   38   39 ar
  77   38   82 1
  78   39   40 ar
  79   39   41 1
  80   40   83 1
  81   42   43 1
  82   43   44 1
  83   43   84 1
  84   43   85 1
  85   44   86 1
  86   44   87 1
  87   44   88 1
  88   45   89 1
  89   45   90 1
  90   45   91 1
  91   46   47 2
  92   46   48 2
  93   49   50 1
  94   50   51 1
  95   50   92 1
  96   50   93 1
  97   51   52 1
  98   51   53 1
  99   51   94 1

#	End of record

