#	Name: ASD05313071
#	Creating user name:	WinNT
#	Creation time:	15. 06. 2019 20:58

#	Modifying user name:	WinNT
#	Modification time:	15. 06. 2019 20:58

#	Program:	/corina/corina34_cracker 3.40 0067  02.08.2006

@<TRIPOS>MOLECULE
ASD05313071
  42   45    0    0    0
SMALL
NO_CHARGES


@<TRIPOS>ATOM
   1 C1            -0.0639     1.4021     0.0869 C.2     
   2 C2            -0.0028    -0.1064     0.0584 C.3     
   3 N3             1.0404     2.2026     0.0869 N.pl3   
   4 N4             1.3958    -0.4742    -0.2331 N.am    
   5 C5             2.4652     0.2568     0.4632 C.3     
   6 C6             2.4237     1.7322     0.0470 C.3     
   7 N7            -0.7420     3.4073     0.1434 N.2     
   8 N8            -1.1087     2.1720     0.1206 N.2     
   9 C9             0.5750     3.4825     0.1260 C.2     
  10 N10            0.9177     5.9943     0.0985 N.pl3   
  11 N11            2.0217     6.8548     0.1427 N.2     
  12 C12            3.1132     6.1360     0.2151 C.2     
  13 C13            2.7609     4.7871     0.2208 C.2     
  14 C14            1.3862     4.7133     0.1475 C.2     
  15 C15           -0.4886     6.3971     0.0202 C.3     
  16 C16            1.6854    -1.4533    -1.1129 C.2     
  17 O17            2.8408    -1.6698    -1.4226 O.2     
  18 C18            0.5986    -2.2635    -1.7009 C.ar    
  19 C19            0.5028    -2.4092    -3.0873 C.ar    
  20 C20           -0.5159    -3.1680    -3.6293 C.ar    
  21 C21           -1.4394    -3.7822    -2.8029 C.ar    
  22 C22           -1.3500    -3.6412    -1.4293 C.ar    
  23 C23           -0.3339    -2.8918    -0.8737 C.ar    
  24 C24           -0.6217    -3.3269    -5.1242 C.3     
  25 F25           -1.7238    -4.1323    -5.4307 F       
  26 F26           -0.7837    -2.0698    -5.7164 F       
  27 F27            0.5441    -3.9260    -5.6132 F       
  28 Cl28           1.6608    -1.6379    -4.1255 Cl      
  29 H29           -0.2994    -0.5092     1.0268 H       
  30 H30           -0.6591    -0.4907    -0.7224 H       
  31 H31            2.3182     0.1780     1.5403 H       
  32 H32            3.4318    -0.1698     0.1951 H       
  33 H33            2.8150     1.8369    -0.9649 H       
  34 H34            3.0289     2.3218     0.7356 H       
  35 H35            4.1201     6.5237     0.2622 H       
  36 H36            3.4421     3.9507     0.2728 H       
  37 H37           -0.7615     6.5635    -1.0219 H       
  38 H38           -1.1159     5.6101     0.4388 H       
  39 H39           -0.6349     7.3176     0.5854 H       
  40 H40           -2.2344    -4.3742    -3.2318 H       
  41 H41           -2.0751    -4.1231    -0.7902 H       
  42 H42           -0.2629    -2.7872     0.1989 H       
@<TRIPOS>BOND
   1    1    2 1
   2    1    3 1
   3    1    8 2
   4    2    4 1
   5    2   29 1
   6    2   30 1
   7    3    6 1
   8    3    9 1
   9    4    5 1
  10    4   16 am
  11    5    6 1
  12    5   31 1
  13    5   32 1
  14    6   33 1
  15    6   34 1
  16    7    8 1
  17    7    9 2
  18    9   14 1
  19   10   11 1
  20   10   14 1
  21   10   15 1
  22   11   12 2
  23   12   13 1
  24   12   35 1
  25   13   14 2
  26   13   36 1
  27   15   37 1
  28   15   38 1
  29   15   39 1
  30   16   17 2
  31   16   18 1
  32   18   19 ar
  33   18   23 ar
  34   19   20 ar
  35   19   28 1
  36   20   21 ar
  37   20   24 1
  38   21   22 ar
  39   21   40 1
  40   22   23 ar
  41   22   41 1
  42   23   42 1
  43   24   25 1
  44   24   26 1
  45   24   27 1

#	End of record

