#	Name: ASD01883821
#	Creating user name:	WinNT
#	Creation time:	15. 06. 2019 19:47

#	Modifying user name:	WinNT
#	Modification time:	15. 06. 2019 19:47

#	Program:	/corina/corina34_cracker 3.40 0067  02.08.2006

@<TRIPOS>MOLECULE
ASD01883821
  64   68    0    0    0
SMALL
NO_CHARGES


@<TRIPOS>ATOM
   1 C1            -0.7671     2.4280     0.3015 C.ar    
   2 C2            -0.7776     1.0914    -0.0792 C.ar    
   3 C3             0.3975     0.4779    -0.5024 C.ar    
   4 C4             1.5675     1.1949    -0.5439 C.ar    
   5 C5             1.5867     2.5407    -0.1629 C.ar    
   6 C6             0.4038     3.1518     0.2618 C.ar    
   7 O7            -1.9348     0.3837    -0.0377 O.3     
   8 C8            -3.1030     1.0761     0.4071 C.3     
   9 C9            -4.2817     0.1372     0.3869 C.ar    
  10 C10           -4.5826    -0.6146     1.5042 C.ar    
  11 C11           -5.6730    -1.4821     1.4843 C.ar    
  12 C12           -6.4537    -1.5851     0.3350 C.ar    
  13 C13           -6.1436    -0.8284    -0.7770 C.ar    
  14 C14           -5.0634     0.0348    -0.7499 C.ar    
  15 C15           -6.0012    -2.2935     2.6827 C.ar    
  16 C16           -7.0895    -3.1583     2.6607 C.ar    
  17 C17           -7.3924    -3.9178     3.7901 C.ar    
  18 C18           -6.6005    -3.8048     4.9361 C.ar    
  19 C19           -5.5203    -2.9423     4.9490 C.ar    
  20 C20           -5.2146    -2.1934     3.8304 C.ar    
  21 Cl21          -6.9741    -4.7479     6.3449 Cl      
  22 C22            2.9796     0.8449    -0.9422 C.3     
  23 N23            3.7715     2.0667    -0.7599 N.am    
  24 C24            2.9640     3.0425    -0.3102 C.2     
  25 O25            3.3196     4.1780    -0.0604 O.2     
  26 C26            5.2061     2.2008    -1.0244 C.3     
  27 C27            5.4461     3.2795    -2.0952 C.3     
  28 C28            6.3137     4.3708    -1.4348 C.3     
  29 C29            7.0314     3.6356    -0.2757 C.3     
  30 C30            5.9364     2.6742     0.2493 C.3     
  31 C31           -8.5478    -4.8392     3.7756 C.2     
  32 N32           -9.7285    -4.4316     3.2693 N.am    
  33 C33          -10.8391    -5.3791     3.1465 C.3     
  34 O34           -8.4332    -5.9647     4.2203 O.2     
  35 C35           -9.9012    -3.0411     2.8417 C.3     
  36 H36           -1.6818     2.9021     0.6255 H       
  37 H37            0.3892    -0.5609    -0.7975 H       
  38 H38            0.4077     4.1905     0.5578 H       
  39 H39           -2.9454     1.4395     1.4226 H       
  40 H40           -3.2993     1.9199    -0.2544 H       
  41 H41           -3.9739    -0.5312     2.3925 H       
  42 H42           -7.2997    -2.2561     0.3141 H       
  43 H43           -6.7481    -0.9075    -1.6685 H       
  44 H44           -4.8243     0.6251    -1.6222 H       
  45 H45           -7.6982    -3.2413     1.7725 H       
  46 H46           -4.9106    -2.8571     5.8364 H       
  47 H47           -4.3691    -1.5217     3.8467 H       
  48 H48            3.3635     0.0506    -0.3021 H       
  49 H49            3.0080     0.5324    -1.9861 H       
  50 H50            5.6149     1.2468    -1.3573 H       
  51 H51            5.9721     2.8492    -2.9474 H       
  52 H52            4.4951     3.7032    -2.4181 H       
  53 H53            7.0407     4.7626    -2.1462 H       
  54 H54            5.6869     5.1738    -1.0471 H       
  55 H55            7.8908     3.0768    -0.6461 H       
  56 H56            7.3323     4.3393     0.5005 H       
  57 H57            5.2486     3.2033     0.9090 H       
  58 H58            6.3880     1.8280     0.7670 H       
  59 H59          -11.0954    -5.7682     4.1319 H       
  60 H60          -11.7042    -4.8715     2.7200 H       
  61 H61          -10.5439    -6.2026     2.4962 H       
  62 H62           -9.5686    -2.9345     1.8092 H       
  63 H63          -10.9536    -2.7667     2.9145 H       
  64 H64           -9.3101    -2.3876     3.4832 H       
@<TRIPOS>BOND
   1    1    2 ar
   2    1    6 ar
   3    1   36 1
   4    2    3 ar
   5    2    7 1
   6    3    4 ar
   7    3   37 1
   8    4    5 ar
   9    4   22 1
  10    5    6 ar
  11    5   24 1
  12    6   38 1
  13    7    8 1
  14    8    9 1
  15    8   39 1
  16    8   40 1
  17    9   10 ar
  18    9   14 ar
  19   10   11 ar
  20   10   41 1
  21   11   12 ar
  22   11   15 1
  23   12   13 ar
  24   12   42 1
  25   13   14 ar
  26   13   43 1
  27   14   44 1
  28   15   16 ar
  29   15   20 ar
  30   16   17 ar
  31   16   45 1
  32   17   18 ar
  33   17   31 1
  34   18   19 ar
  35   18   21 1
  36   19   20 ar
  37   19   46 1
  38   20   47 1
  39   22   23 1
  40   22   48 1
  41   22   49 1
  42   23   24 am
  43   23   26 1
  44   24   25 2
  45   26   27 1
  46   26   30 1
  47   26   50 1
  48   27   28 1
  49   27   51 1
  50   27   52 1
  51   28   29 1
  52   28   53 1
  53   28   54 1
  54   29   30 1
  55   29   55 1
  56   29   56 1
  57   30   57 1
  58   30   58 1
  59   31   32 am
  60   31   34 2
  61   32   33 1
  62   32   35 1
  63   33   59 1
  64   33   60 1
  65   33   61 1
  66   35   62 1
  67   35   63 1
  68   35   64 1

#	End of record

