#	Name: ASD05720091
#	Creating user name:	WinNT
#	Creation time:	15. 06. 2019 21:01

#	Modifying user name:	WinNT
#	Modification time:	15. 06. 2019 21:01

#	Program:	/corina/corina34_cracker 3.40 0067  02.08.2006

@<TRIPOS>MOLECULE
ASD05720091
  50   53    0    0    0
SMALL
NO_CHARGES


@<TRIPOS>ATOM
   1 C1             0.4956     1.0382     1.0965 C.2     
   2 N2             0.3990    -0.2278     0.6697 N.am    
   3 C3             1.6517    -0.6089     0.0004 C.3     
   4 C4             2.5238     0.6577     0.1001 C.3     
   5 N5             1.6699     1.6180     0.8151 N.am    
   6 O6            -0.4030     1.6108     1.6818 O.2     
   7 C7             2.0440     2.9907     1.1642 C.3     
   8 C8             2.6958     3.0036     2.5229 C.ar    
   9 C9             4.0652     2.8479     2.6329 C.ar    
  10 C10            4.6651     2.8594     3.8773 C.ar    
  11 C11            3.8923     3.0274     5.0171 C.ar    
  12 C12            2.5184     3.1834     4.9040 C.ar    
  13 C13            1.9240     3.1768     3.6570 C.ar    
  14 O14            4.4800     3.0386     6.2424 O.3     
  15 C15            3.6225     3.2159     7.3716 C.3     
  16 C16            1.3906    -0.9672    -1.4640 C.3     
  17 C17            0.5324    -2.2319    -1.5344 C.3     
  18 C18            0.6553     0.1869    -2.1482 C.3     
  19 C19           -1.6994    -3.1293     0.6440 C.2     
  20 N20           -0.6402    -2.3217     0.4923 N.2     
  21 C21           -0.7086    -1.0502     0.8334 C.2     
  22 C22           -1.9043    -0.5233     1.3648 C.2     
  23 C23           -2.9753    -1.3334     1.5199 C.2     
  24 N24           -2.8763    -2.6481     1.1577 N.pl3   
  25 N25           -3.7880    -3.7095     1.1958 N.2     
  26 C26           -3.2024    -4.7892     0.7293 C.2     
  27 C27           -1.8999    -4.4755     0.3679 C.2     
  28 Br28          -0.6271    -5.6664    -0.3655 Br      
  29 H29            2.1254    -1.4415     0.5204 H       
  30 H30            3.4305     0.4540     0.6697 H       
  31 H31            2.7708     1.0314    -0.8936 H       
  32 H32            2.7430     3.3766     0.4222 H       
  33 H33            1.1519     3.6168     1.1832 H       
  34 H34            4.6664     2.7168     1.7453 H       
  35 H35            5.7348     2.7374     3.9627 H       
  36 H36            1.9147     3.3143     5.7898 H       
  37 H37            0.8551     3.3030     3.5681 H       
  38 H38            3.1032     4.1706     7.2871 H       
  39 H39            2.8927     2.4070     7.4043 H       
  40 H40            4.2175     3.2056     8.2848 H       
  41 H41            2.3400    -1.1438    -1.9697 H       
  42 H42            0.5252    -2.6096    -2.5568 H       
  43 H43            0.9471    -2.9899    -0.8699 H       
  44 H44           -0.4866    -1.9971    -1.2267 H       
  45 H45            1.2667     1.0879    -2.0980 H       
  46 H46            0.4693    -0.0683    -3.1914 H       
  47 H47           -0.2940     0.3635    -1.6425 H       
  48 H48           -1.9634     0.5179     1.6456 H       
  49 H49           -3.8984    -0.9466     1.9255 H       
  50 H50           -3.6615    -5.7626     0.6390 H       
@<TRIPOS>BOND
   1    1    2 am
   2    1    5 am
   3    1    6 2
   4    2    3 1
   5    2   21 1
   6    3    4 1
   7    3   16 1
   8    3   29 1
   9    4    5 1
  10    4   30 1
  11    4   31 1
  12    5    7 1
  13    7    8 1
  14    7   32 1
  15    7   33 1
  16    8    9 ar
  17    8   13 ar
  18    9   10 ar
  19    9   34 1
  20   10   11 ar
  21   10   35 1
  22   11   12 ar
  23   11   14 1
  24   12   13 ar
  25   12   36 1
  26   13   37 1
  27   14   15 1
  28   15   38 1
  29   15   39 1
  30   15   40 1
  31   16   17 1
  32   16   18 1
  33   16   41 1
  34   17   42 1
  35   17   43 1
  36   17   44 1
  37   18   45 1
  38   18   46 1
  39   18   47 1
  40   19   20 1
  41   19   24 1
  42   19   27 2
  43   20   21 2
  44   21   22 1
  45   22   23 2
  46   22   48 1
  47   23   24 1
  48   23   49 1
  49   24   25 1
  50   25   26 2
  51   26   27 1
  52   26   50 1
  53   27   28 1

#	End of record

