#	Name: ASD03700001
#	Creating user name:	WinNT
#	Creation time:	15. 06. 2019 20:43

#	Modifying user name:	WinNT
#	Modification time:	15. 06. 2019 20:43

#	Program:	/corina/corina34_cracker 3.40 0067  02.08.2006

@<TRIPOS>MOLECULE
ASD03700001
 432  437    0    0    0
SMALL
NO_CHARGES


@<TRIPOS>ATOM
   1 C1            16.4617   -20.7355     4.0470 C.3     
   2 C2            15.3487   -21.7441     3.9253 C.2     
   3 N3            14.1292   -21.3544     3.5040 N.am    
   4 O4            15.5503   -22.9066     4.2064 O.2     
   5 C5            13.0700   -22.3474     3.3081 C.3     
   6 C6            13.8628   -19.9379     3.2420 C.3     
   7 C7            14.0024   -19.6613     1.7437 C.3     
   8 C8            13.6010   -18.2138     1.4527 C.3     
   9 C9            15.4550   -19.8833     1.3173 C.3     
  10 N10           17.6516   -21.3852     4.6126 N.3     
  11 C11           18.7596   -20.4299     4.7461 C.3     
  12 C12           19.9782   -21.1417     5.3371 C.3     
  13 C13           21.1323   -20.1468     5.4761 C.3     
  14 C14           22.3509   -20.8586     6.0671 C.3     
  15 N15           23.4589   -19.9034     6.2006 N.3     
  16 C16           12.2958   -22.5157     4.5900 C.2     
  17 N17           11.2666   -23.3840     4.6467 N.am    
  18 O18           12.5990   -21.8697     5.5707 O.2     
  19 C19           10.5140   -23.5475     5.8929 C.3     
  20 C20           10.9004   -24.1642     3.4621 C.3     
  21 C21           11.6779   -25.4819     3.4589 C.3     
  22 C22           11.2955   -26.2968     2.2217 C.3     
  23 C23           12.0731   -27.6145     2.2185 C.3     
  24 N24           11.7059   -28.3968     1.0307 N.3     
  25 C25            9.3645   -22.5733     5.9171 C.2     
  26 N26            8.5293   -22.5426     6.9745 N.am    
  27 O27            9.1911   -21.8168     4.9852 O.2     
  28 C28            7.4119   -21.5955     6.9980 C.3     
  29 C29            8.7388   -23.4564     8.1002 C.3     
  30 C30            7.7922   -23.0835     9.2428 C.3     
  31 C31            8.4605   -24.8700     7.6583 C.ar    
  32 C32            9.4303   -25.8439     7.8057 C.ar    
  33 C33            9.1750   -27.1406     7.4002 C.ar    
  34 C34            7.9496   -27.4634     6.8479 C.ar    
  35 C35            6.9794   -26.4897     6.7013 C.ar    
  36 C36            7.2332   -25.1940     7.1107 C.ar    
  37 C37            6.2566   -22.1620     6.2135 C.2     
  38 N38            5.0440   -21.5777     6.2828 N.am    
  39 O39            6.4180   -23.1437     5.5199 O.2     
  40 C40            3.8954   -22.1925     5.6128 C.3     
  41 C41            4.8746   -20.3279     7.0280 C.3     
  42 C42            4.9973   -19.1596     6.0840 C.ar    
  43 C43            3.8876   -18.7138     5.3906 C.ar    
  44 C44            3.9978   -17.6397     4.5225 C.ar    
  45 C45            5.2287   -17.0112     4.3510 C.ar    
  46 C46            6.3367   -17.4636     5.0491 C.ar    
  47 C47            6.2180   -18.5323     5.9178 C.ar    
  48 O48            3.0755   -17.0153     3.7334 O.3     
  49 C49            3.6607   -15.7455     3.3891 C.3     
  50 O50            5.0776   -15.9930     3.4544 O.3     
  51 C51            3.2783   -23.2255     6.5201 C.2     
  52 N52            2.2679   -23.9974     6.0733 N.am    
  53 O53            3.6910   -23.3622     7.6523 O.2     
  54 C54            1.6681   -25.0017     6.9553 C.3     
  55 C55            1.7694   -23.8323     4.7057 C.3     
  56 C56            2.5488   -24.7528     3.7642 C.3     
  57 C57            2.0282   -24.5803     2.3358 C.3     
  58 C58            2.8075   -25.5007     1.3944 C.3     
  59 N59            2.3077   -25.3352     0.0230 N.3     
  60 C60            0.5239   -24.3828     7.7161 C.2     
  61 N61           -0.1590   -25.1143     8.6190 N.am    
  62 C62           -1.3286   -24.5427     9.2909 C.3     
  63 O63            0.2175   -23.2265     7.5160 O.2     
  64 C64            0.2684   -26.4809     8.9285 C.3     
  65 C65            1.1793   -26.4644    10.1577 C.3     
  66 C66            1.5432   -27.8999    10.5421 C.3     
  67 C67            2.4551   -25.6833     9.8366 C.3     
  68 C68           -2.5669   -24.8430     8.4861 C.2     
  69 N69           -3.7699   -24.4120     8.9143 N.am    
  70 O70           -2.4808   -25.4724     7.4530 O.2     
  71 C71           -4.9736   -24.7039     8.1320 C.3     
  72 C72           -3.8739   -23.6517    10.1623 C.3     
  73 C73           -3.7311   -22.1580     9.8628 C.3     
  74 C74           -3.8397   -21.3640    11.1661 C.3     
  75 C75           -3.6970   -19.8704    10.8667 C.3     
  76 N76           -3.8012   -19.1079    12.1180 N.3     
  77 C77           -5.5626   -26.0144     8.5865 C.2     
  78 N78           -6.6819   -26.4883     8.0042 N.am    
  79 O79           -5.0295   -26.6427     9.4764 O.2     
  80 C80           -7.3260   -25.7293     6.9293 C.3     
  81 C81           -7.2545   -27.7623     8.4460 C.3     
  82 C82           -6.7477   -26.1636     5.5810 C.3     
  83 C83           -7.4203   -25.3710     4.4584 C.3     
  84 C84           -6.8420   -25.8053     3.1101 C.3     
  85 N85           -7.4878   -25.0443     2.0323 N.3     
  86 C86           -8.2413   -27.5111     9.5570 C.2     
  87 N87           -8.8962   -28.5441    10.1230 N.am    
  88 O88           -8.4461   -26.3793     9.9417 O.2     
  89 C89           -9.8555   -28.2999    11.2029 C.3     
  90 C90          -10.4536   -29.6304    11.6644 C.3     
  91 C91          -11.4554   -29.3754    12.7923 C.3     
  92 C92          -12.0534   -30.7059    13.2538 C.3     
  93 C93          -13.0553   -30.4509    14.3817 C.3     
  94 C94          -13.7341   -31.7442    14.7526 C.2     
  95 N95          -12.3502   -29.9170    15.5496 N.am    
  96 N96          -14.4476   -32.4196    13.8299 N.am    
  97 O97          -13.6384   -32.1774    15.8814 O.2     
  98 C98          -13.0117   -29.1620    16.4490 C.2     
  99 O99          -14.1905   -28.9245    16.2915 O.2     
 100 C100         -12.2864   -28.6128    17.6505 C.3     
 101 C101         -13.2592   -27.7973    18.5046 C.3     
 102 N102         -12.5542   -27.2634    19.6726 N.am    
 103 C103         -13.2156   -26.5083    20.5720 C.2     
 104 O104         -14.3944   -26.2709    20.4144 O.2     
 105 C105         -12.4903   -25.9591    21.7734 C.3     
 106 C106         -13.4631   -25.1436    22.6275 C.3     
 107 C107         -12.7268   -24.5861    23.8473 C.3     
 108 C108         -13.6996   -23.7706    24.7015 C.3     
 109 C109         -12.9633   -23.2130    25.9212 C.3     
 110 N110         -13.8947   -22.4321    26.7391 N.am    
 111 C111         -13.4650   -21.8417    27.8719 C.2     
 112 O112         -12.3072   -21.9569    28.2142 O.2     
 113 C113         -14.4231   -21.0385    28.7132 C.3     
 114 N114         -13.7181   -20.5046    29.8812 N.am    
 115 C115         -13.1196   -19.2989    29.8140 C.2     
 116 C116         -12.3944   -18.7497    31.0154 C.3     
 117 O117         -13.1647   -18.6559    28.7866 O.2     
 118 N118         -11.8349   -17.4355    30.6895 N.am    
 119 C119         -12.5632   -16.3216    30.9017 C.2     
 120 C120         -11.9877   -14.9698    30.5665 C.3     
 121 O121         -13.6818   -16.4071    31.3625 O.2     
 122 N122         -13.0073   -13.9391    30.7770 N.am    
 123 C123         -13.6637   -21.2813    31.1221 C.3     
 124 C124         -12.4265   -22.1813    31.1066 C.3     
 125 C125         -12.3696   -22.9925    32.4026 C.3     
 126 C126         -11.1324   -23.8925    32.3870 C.3     
 127 N127         -11.0778   -24.6714    33.6314 N.3     
 128 C128         -10.4837   -17.3323    30.1329 C.3     
 129 C129         -10.5548   -17.3964    28.6059 C.3     
 130 C130          -9.1437   -17.2885    28.0246 C.3     
 131 C131          -9.2148   -17.3527    26.4976 C.3     
 132 N132          -7.8599   -17.2491    25.9395 N.3     
 133 C133         -13.1828   -13.4051    32.0019 C.2     
 134 C134         -13.8361   -13.4888    29.6560 C.3     
 135 C135         -13.0945   -12.3995    28.8787 C.3     
 136 C136         -13.8963   -12.0287    27.6295 C.3     
 137 C137         -12.9299   -11.1630    29.7647 C.3     
 138 C138         -14.2901   -12.4106    32.2388 C.3     
 139 O139         -12.4497   -13.7249    32.9136 O.2     
 140 N140         -14.2694   -11.9812    33.6393 N.am    
 141 C141         -13.5360   -10.9113    34.0053 C.2     
 142 C142         -13.5148   -10.4696    35.4460 C.3     
 143 N143         -12.7338    -9.2360    35.5670 N.am    
 144 C144         -15.0460   -12.7146    34.6419 C.3     
 145 C145         -14.1850   -13.8301    35.2380 C.3     
 146 C146         -14.9960   -14.5961    36.2851 C.3     
 147 C147         -14.1350   -15.7115    36.8812 C.3     
 148 N148         -14.9137   -16.4470    37.8865 N.3     
 149 O149         -12.8931   -10.3041    33.1753 O.2     
 150 C150         -13.3563    -8.0406    35.5571 C.2     
 151 C151         -12.5470    -6.7695    35.5711 C.3     
 152 O152         -14.5678    -7.9880    35.5370 O.2     
 153 C153         -11.2763    -9.3018    35.6988 C.3     
 154 C154         -10.9117    -9.5137    37.1456 C.ar    
 155 C155         -10.8779   -10.7931    37.6680 C.ar    
 156 C156         -10.5426   -10.9904    38.9977 C.ar    
 157 C157         -10.2401    -9.8970    39.8054 C.ar    
 158 C158         -10.2765    -8.6175    39.2752 C.ar    
 159 C159         -10.6063    -8.4286    37.9461 C.ar    
 160 O160         -10.4376   -12.1275    39.7456 O.3     
 161 C161          -9.6727   -11.7545    40.9071 C.3     
 162 O162          -9.9457   -10.3490    41.0593 O.3     
 163 N163         -13.4496    -5.6157    35.5536 N.am    
 164 C164         -13.9984    -5.1720    36.7018 C.2     
 165 C165         -13.7556    -4.9442    34.2880 C.3     
 166 C166         -12.4584    -4.4438    33.6495 C.3     
 167 C167         -14.4327    -5.9150    33.3552 C.ar    
 168 C168         -15.7247    -5.6748    32.9265 C.ar    
 169 C169         -16.3458    -6.5653    32.0708 C.ar    
 170 C170         -15.6747    -7.6957    31.6435 C.ar    
 171 C171         -14.3823    -7.9355    32.0715 C.ar    
 172 C172         -13.7597    -7.0427    32.9237 C.ar    
 173 C173         -15.0142    -4.0592    36.6707 C.3     
 174 N174         -15.5645    -3.8627    38.0141 N.am    
 175 C175         -14.9759    -2.9974    38.8634 C.2     
 176 C176         -15.5420    -2.7951    40.2453 C.3     
 177 N177         -14.7294    -1.8127    40.9669 N.am    
 178 O178         -13.6748    -5.6682    37.7601 O.2     
 179 C179         -16.7545    -4.6066    38.4343 C.3     
 180 C180         -16.3291    -5.9269    39.0799 C.3     
 181 C181         -17.5719    -6.7038    39.5187 C.3     
 182 C182         -17.1464    -8.0241    40.1643 C.3     
 183 N183         -18.3397    -8.7701    40.5857 N.3     
 184 O184         -13.9908    -2.3815    38.5155 O.2     
 185 C185         -15.0351    -0.5020    40.8949 C.2     
 186 C186         -14.2702     0.4968    41.7245 C.3     
 187 N187         -14.7065     1.8564    41.3793 N.3     
 188 C188         -13.9805     2.8590    42.1702 C.3     
 189 C189         -14.4610     4.2592    41.7836 C.3     
 190 C190         -13.7049     5.3035    42.6074 C.3     
 191 C191         -14.1854     6.7037    42.2208 C.3     
 192 N192         -13.4594     7.7063    43.0118 N.3     
 193 O193         -15.9258    -0.1265    40.1624 O.2     
 194 C194         -13.5845    -2.2549    41.7669 C.3     
 195 C195         -14.0129    -2.4118    43.2273 C.3     
 196 C196         -15.0945    -3.4891    43.3286 C.3     
 197 C197         -12.8046    -2.8211    44.0720 C.3     
 198 H198          16.6998   -20.3363     3.0610 H       
 199 H199          16.1458   -19.9230     4.7013 H       
 200 H200          12.3976   -22.0106     2.5191 H       
 201 H201          13.5143   -23.3014     3.0241 H       
 202 H202          12.8506   -19.6930     3.5639 H       
 203 H203          14.5773   -19.3259     3.7926 H       
 204 H204          13.3531   -20.3373     1.1874 H       
 205 H205          14.2504   -17.5379     2.0091 H       
 206 H206          13.7005   -18.0168     0.3853 H       
 207 H207          12.5662   -18.0557     1.7565 H       
 208 H208          16.1062   -19.2201     1.8867 H       
 209 H209          15.7353   -20.9193     1.5078 H       
 210 H210          15.5582   -19.6687     0.2537 H       
 211 H211          17.4399   -21.8194     5.4984 H       
 212 H212          19.0136   -20.0287     3.7650 H       
 213 H213          18.4596   -19.6153     5.4053 H       
 214 H214          19.7242   -21.5430     6.3182 H       
 215 H215          20.2782   -21.9563     4.6779 H       
 216 H216          21.3862   -19.7456     4.4950 H       
 217 H217          20.8322   -19.3322     6.1353 H       
 218 H218          22.0969   -21.2599     7.0482 H       
 219 H219          22.6509   -21.6733     5.4079 H       
 220 H220          24.2762   -20.3497     6.5891 H       
 221 H221          23.6706   -19.4692     5.3148 H       
 222 H222          10.1289   -24.5654     5.9539 H       
 223 H223          11.1705   -23.3560     6.7417 H       
 224 H224           9.8309   -24.3735     3.4812 H       
 225 H225          11.1436   -23.5967     2.5638 H       
 226 H226          12.7475   -25.2726     3.4398 H       
 227 H227          11.4348   -26.0494     4.3572 H       
 228 H228          10.2260   -26.5060     2.2408 H       
 229 H229          11.5387   -25.7292     1.3234 H       
 230 H230          13.1426   -27.4052     2.1994 H       
 231 H231          11.8299   -28.1820     3.1168 H       
 232 H232          11.8617   -27.8669     0.1863 H       
 233 H233          12.2065   -29.2725     1.0055 H       
 234 H234           7.1020   -21.4247     8.0290 H       
 235 H235           7.7260   -20.6518     6.5520 H       
 236 H236           9.7706   -23.3795     8.4434 H       
 237 H237           6.7605   -23.1603     8.8996 H       
 238 H238           7.9481   -23.7634    10.0804 H       
 239 H239           7.9935   -22.0610     9.5625 H       
 240 H240          10.3877   -25.5917     8.2372 H       
 241 H241           9.9330   -27.9013     7.5147 H       
 242 H242           7.7504   -28.4763     6.5305 H       
 243 H243           6.0222   -26.7418     6.2695 H       
 244 H244           6.4752   -24.4332     6.9963 H       
 245 H245           3.1568   -21.4252     5.3805 H       
 246 H246           4.2256   -22.6700     4.6902 H       
 247 H247           3.8906   -20.3147     7.4965 H       
 248 H248           5.6440   -20.2561     7.7968 H       
 249 H249           2.9344   -19.2033     5.5252 H       
 250 H250           7.2925   -16.9780     4.9180 H       
 251 H251           7.0827   -18.8834     6.4614 H       
 252 H252           3.3695   -15.4504     2.3810 H       
 253 H253           3.3715   -14.9821     4.1113 H       
 254 H254           1.2987   -25.8354     6.3583 H       
 255 H255           2.4188   -25.3627     7.6583 H       
 256 H256           0.7108   -24.0896     4.6713 H       
 257 H257           1.9020   -22.7965     4.3932 H       
 258 H258           3.6074   -24.4955     3.7986 H       
 259 H259           2.4162   -25.7886     4.0766 H       
 260 H260           0.9695   -24.8375     2.3014 H       
 261 H261           2.1607   -23.5445     2.0234 H       
 262 H262           3.8662   -25.2435     1.4288 H       
 263 H263           2.6750   -26.5365     1.7068 H       
 264 H264           2.8069   -25.9330    -0.6185 H       
 265 H265           1.3142   -25.5054    -0.0228 H       
 266 H266          -1.4264   -24.9797    10.2847 H       
 267 H267          -1.2056   -23.4633     9.3791 H       
 268 H268          -0.6067   -27.0978     9.1330 H       
 269 H269           0.8126   -26.8927     8.0785 H       
 270 H270           0.6600   -25.9863    10.9883 H       
 271 H271           2.0625   -28.3779     9.7115 H       
 272 H272           2.1921   -27.8881    11.4179 H       
 273 H273           0.6343   -28.4563    10.7709 H       
 274 H274           3.1049   -25.6732    10.7117 H       
 275 H275           2.9734   -26.1603     9.0047 H       
 276 H276           2.1960   -24.6601     9.5646 H       
 277 H277          -5.7035   -23.9076     8.2775 H       
 278 H278          -4.7133   -24.7695     7.0756 H       
 279 H279          -4.8443   -23.8389    10.6220 H       
 280 H280          -3.0826   -23.9628    10.8443 H       
 281 H281          -2.7607   -21.9708     9.4031 H       
 282 H282          -4.5224   -21.8469     9.1808 H       
 283 H283          -4.8101   -21.5512    11.6259 H       
 284 H284          -3.0484   -21.6751    11.8481 H       
 285 H285          -2.7266   -19.6831    10.4069 H       
 286 H286          -4.4883   -19.5593    10.1847 H       
 287 H287          -3.1188   -19.4229    12.7913 H       
 288 H288          -3.7100   -18.1178    11.9468 H       
 289 H289          -8.3991   -25.9197     6.9426 H       
 290 H290          -7.1440   -24.6648     7.0767 H       
 291 H291          -7.7633   -28.2415     7.6096 H       
 292 H292          -6.4581   -28.4126     8.8077 H       
 293 H293          -5.6745   -25.9732     5.5676 H       
 294 H294          -6.9296   -27.2282     5.4336 H       
 295 H295          -8.4934   -25.5614     4.4717 H       
 296 H296          -7.2383   -24.3064     4.6058 H       
 297 H297          -5.7688   -25.6149     3.0968 H       
 298 H298          -7.0239   -26.8699     2.9627 H       
 299 H299          -7.1227   -25.3131     1.1309 H       
 300 H300          -8.4904   -25.1531     2.0634 H       
 301 H301          -8.7324   -29.4493     9.8152 H       
 302 H302          -9.3468   -27.8207    12.0393 H       
 303 H303         -10.6520   -27.6496    10.8413 H       
 304 H304         -10.9623   -30.1097    10.8280 H       
 305 H305          -9.6571   -30.2808    12.0261 H       
 306 H306         -10.9466   -28.8962    13.6287 H       
 307 H307         -12.2519   -28.7251    12.4307 H       
 308 H308         -12.5622   -31.1852    12.4174 H       
 309 H309         -11.2569   -31.3563    13.6155 H       
 310 H310         -13.8026   -29.7310    14.0480 H       
 311 H311         -11.4074   -30.1070    15.6757 H       
 312 H312         -14.5241   -32.0732    12.9271 H       
 313 H313         -14.8845   -33.2520    14.0686 H       
 314 H314         -11.8867   -29.4367    18.2416 H       
 315 H315         -11.4685   -27.9726    17.3199 H       
 316 H316         -13.6589   -26.9733    17.9135 H       
 317 H317         -14.0771   -28.4375    18.8352 H       
 318 H318         -11.6113   -27.4533    19.7986 H       
 319 H319         -12.0906   -26.7831    22.3645 H       
 320 H320         -11.6725   -25.3189    21.4428 H       
 321 H321         -13.8628   -24.3197    22.0364 H       
 322 H322         -14.2810   -25.7839    22.9582 H       
 323 H323         -12.3271   -25.4100    24.4384 H       
 324 H324         -11.9089   -23.9458    23.5167 H       
 325 H325         -14.0993   -22.9466    24.1104 H       
 326 H326         -14.5174   -24.4108    25.0321 H       
 327 H327         -12.5635   -24.0369    26.5123 H       
 328 H328         -12.1454   -22.5728    25.5906 H       
 329 H329         -14.8207   -22.3400    26.4653 H       
 330 H330         -14.8229   -20.2145    28.1221 H       
 331 H331         -15.2410   -21.6787    29.0438 H       
 332 H332         -13.0918   -18.6515    31.8473 H       
 333 H333         -11.5886   -19.4284    31.2950 H       
 334 H334         -11.1308   -14.7700    31.2099 H       
 335 H335         -11.6697   -14.9587    29.5240 H       
 336 H336         -13.6086   -20.6027    31.9733 H       
 337 H337         -14.5595   -21.8966    31.2053 H       
 338 H338         -12.4815   -22.8599    30.2553 H       
 339 H339         -11.5306   -21.5661    31.0234 H       
 340 H340         -12.3146   -22.3139    33.2538 H       
 341 H341         -13.2655   -23.6078    32.4857 H       
 342 H342         -11.1874   -24.5711    31.5358 H       
 343 H343         -10.2365   -23.2773    32.3039 H       
 344 H344         -11.9261   -25.2014    33.7638 H       
 345 H345         -10.2688   -25.2742    33.6454 H       
 346 H346         -10.0371   -16.3854    30.4364 H       
 347 H347          -9.8742   -18.1566    30.5032 H       
 348 H348         -11.0014   -18.3433    28.3025 H       
 349 H349         -11.1643   -16.5721    28.2356 H       
 350 H350          -8.6971   -16.3417    28.3281 H       
 351 H351          -8.5342   -18.1129    28.3949 H       
 352 H352          -9.6614   -18.2996    26.1942 H       
 353 H353          -9.8243   -16.5283    26.1274 H       
 354 H354          -7.8801   -17.2890    24.9315 H       
 355 H355          -7.4004   -16.4096    26.2591 H       
 356 H356         -14.0417   -14.3308    28.9950 H       
 357 H357         -14.7755   -13.0879    30.0367 H       
 358 H358         -12.1122   -12.7684    28.5837 H       
 359 H359         -14.8786   -11.6597    27.9245 H       
 360 H360         -13.3679   -11.2526    27.0757 H       
 361 H361         -14.0135   -12.9095    26.9983 H       
 362 H362         -12.3113   -10.4274    29.2506 H       
 363 H363         -13.9093   -10.7323    29.9730 H       
 364 H364         -12.4518   -11.4485    30.7018 H       
 365 H365         -14.1463   -11.5456    31.5914 H       
 366 H366         -15.2502   -12.8759    32.0156 H       
 367 H367         -14.5346   -10.2888    35.7857 H       
 368 H368         -13.0606   -11.2487    36.0583 H       
 369 H369         -15.3547   -12.0317    35.4333 H       
 370 H370         -15.9285   -13.1487    34.1718 H       
 371 H371         -13.8763   -14.5131    34.4466 H       
 372 H372         -13.3025   -13.3961    35.7081 H       
 373 H373         -15.3047   -13.9131    37.0765 H       
 374 H374         -15.8785   -15.0301    35.8150 H       
 375 H375         -13.8262   -16.3945    36.0898 H       
 376 H376         -13.2525   -15.2775    37.3513 H       
 377 H377         -15.7698   -16.8047    37.4901 H       
 378 H378         -14.3665   -17.1897    38.2953 H       
 379 H379         -11.9349    -6.7383    36.4725 H       
 380 H380         -11.9021    -6.7397    34.6928 H       
 381 H381         -10.8946   -10.1307    35.1027 H       
 382 H382         -10.8371    -8.3684    35.3464 H       
 383 H383         -11.1132   -11.6392    37.0394 H       
 384 H384         -10.0424    -7.7677    39.8992 H       
 385 H385         -10.6338    -7.4306    37.5343 H       
 386 H386         -10.0120   -12.3076    41.7829 H       
 387 H387          -8.6094   -11.9218    40.7354 H       
 388 H388         -14.4177    -4.0990    34.4760 H       
 389 H389         -11.8379    -5.2958    33.3717 H       
 390 H390         -12.6931    -3.8598    32.7596 H       
 391 H391         -11.9199    -3.8192    34.3624 H       
 392 H392         -16.2491    -4.7916    33.2603 H       
 393 H393         -17.3555    -6.3780    31.7364 H       
 394 H394         -16.1602    -8.3918    30.9756 H       
 395 H395         -13.8581    -8.8188    31.7379 H       
 396 H396         -12.7500    -7.2300    33.2581 H       
 397 H397         -14.5351    -3.1391    36.3361 H       
 398 H398         -15.8187    -4.3208    35.9832 H       
 399 H399         -16.5671    -2.4327    40.1686 H       
 400 H400         -15.5309    -3.7423    40.7847 H       
 401 H401         -17.3174    -4.0142    39.1557 H       
 402 H402         -17.3802    -4.8119    37.5657 H       
 403 H403         -15.7662    -6.5192    38.3585 H       
 404 H404         -15.7034    -5.7216    39.9485 H       
 405 H405         -18.1348    -6.1115    40.2401 H       
 406 H406         -18.1975    -6.9091    38.6501 H       
 407 H407         -16.5835    -8.6165    39.4429 H       
 408 H408         -16.5207    -7.8188    41.0329 H       
 409 H409         -18.0850    -9.6468    41.0154 H       
 410 H410         -18.9121    -8.2165    41.2052 H       
 411 H411         -14.4597     0.3119    42.7818 H       
 412 H412         -13.2037     0.3954    41.5233 H       
 413 H413         -14.6010     2.0300    40.3909 H       
 414 H414         -14.1680     2.6905    43.2307 H       
 415 H415         -12.9120     2.7740    41.9721 H       
 416 H416         -14.2735     4.4277    40.7231 H       
 417 H417         -15.5295     4.3443    41.9817 H       
 418 H418         -13.8923     5.1349    43.6679 H       
 419 H419         -12.6364     5.2184    42.4093 H       
 420 H420         -13.9979     6.8722    41.1603 H       
 421 H421         -15.2538     6.7887    42.4189 H       
 422 H422         -13.7590     8.6401    42.7747 H       
 423 H423         -13.5648     7.5327    44.0001 H       
 424 H424         -13.2251    -3.2120    41.3888 H       
 425 H425         -12.7869    -1.5151    41.6997 H       
 426 H426         -14.4082    -1.4644    43.5937 H       
 427 H427         -15.3291    -3.6709    44.3774 H       
 428 H428         -15.9916    -3.1533    42.8085 H       
 429 H429         -14.7333    -4.4107    42.8721 H       
 430 H430         -12.0341    -2.0535    43.9998 H       
 431 H431         -13.1098    -2.9328    45.1124 H       
 432 H432         -12.4093    -3.7684    43.7056 H       
@<TRIPOS>BOND
   1    1    2 1
   2    1   10 1
   3    1  198 1
   4    1  199 1
   5    2    3 am
   6    2    4 2
   7    3    5 1
   8    3    6 1
   9    5   16 1
  10    5  200 1
  11    5  201 1
  12    6    7 1
  13    6  202 1
  14    6  203 1
  15    7    8 1
  16    7    9 1
  17    7  204 1
  18    8  205 1
  19    8  206 1
  20    8  207 1
  21    9  208 1
  22    9  209 1
  23    9  210 1
  24   10   11 1
  25   10  211 1
  26   11   12 1
  27   11  212 1
  28   11  213 1
  29   12   13 1
  30   12  214 1
  31   12  215 1
  32   13   14 1
  33   13  216 1
  34   13  217 1
  35   14   15 1
  36   14  218 1
  37   14  219 1
  38   15  220 1
  39   15  221 1
  40   16   17 am
  41   16   18 2
  42   17   19 1
  43   17   20 1
  44   19   25 1
  45   19  222 1
  46   19  223 1
  47   20   21 1
  48   20  224 1
  49   20  225 1
  50   21   22 1
  51   21  226 1
  52   21  227 1
  53   22   23 1
  54   22  228 1
  55   22  229 1
  56   23   24 1
  57   23  230 1
  58   23  231 1
  59   24  232 1
  60   24  233 1
  61   25   26 am
  62   25   27 2
  63   26   28 1
  64   26   29 1
  65   28   37 1
  66   28  234 1
  67   28  235 1
  68   29   30 1
  69   29   31 1
  70   29  236 1
  71   30  237 1
  72   30  238 1
  73   30  239 1
  74   31   32 ar
  75   31   36 ar
  76   32   33 ar
  77   32  240 1
  78   33   34 ar
  79   33  241 1
  80   34   35 ar
  81   34  242 1
  82   35   36 ar
  83   35  243 1
  84   36  244 1
  85   37   38 am
  86   37   39 2
  87   38   40 1
  88   38   41 1
  89   40   51 1
  90   40  245 1
  91   40  246 1
  92   41   42 1
  93   41  247 1
  94   41  248 1
  95   42   43 ar
  96   42   47 ar
  97   43   44 ar
  98   43  249 1
  99   44   45 ar
 100   44   48 1
 101   45   46 ar
 102   45   50 1
 103   46   47 ar
 104   46  250 1
 105   47  251 1
 106   48   49 1
 107   49   50 1
 108   49  252 1
 109   49  253 1
 110   51   52 am
 111   51   53 2
 112   52   54 1
 113   52   55 1
 114   54   60 1
 115   54  254 1
 116   54  255 1
 117   55   56 1
 118   55  256 1
 119   55  257 1
 120   56   57 1
 121   56  258 1
 122   56  259 1
 123   57   58 1
 124   57  260 1
 125   57  261 1
 126   58   59 1
 127   58  262 1
 128   58  263 1
 129   59  264 1
 130   59  265 1
 131   60   61 am
 132   60   63 2
 133   61   62 1
 134   61   64 1
 135   62   68 1
 136   62  266 1
 137   62  267 1
 138   64   65 1
 139   64  268 1
 140   64  269 1
 141   65   66 1
 142   65   67 1
 143   65  270 1
 144   66  271 1
 145   66  272 1
 146   66  273 1
 147   67  274 1
 148   67  275 1
 149   67  276 1
 150   68   69 am
 151   68   70 2
 152   69   71 1
 153   69   72 1
 154   71   77 1
 155   71  277 1
 156   71  278 1
 157   72   73 1
 158   72  279 1
 159   72  280 1
 160   73   74 1
 161   73  281 1
 162   73  282 1
 163   74   75 1
 164   74  283 1
 165   74  284 1
 166   75   76 1
 167   75  285 1
 168   75  286 1
 169   76  287 1
 170   76  288 1
 171   77   78 am
 172   77   79 2
 173   78   80 1
 174   78   81 1
 175   80   82 1
 176   80  289 1
 177   80  290 1
 178   81   86 1
 179   81  291 1
 180   81  292 1
 181   82   83 1
 182   82  293 1
 183   82  294 1
 184   83   84 1
 185   83  295 1
 186   83  296 1
 187   84   85 1
 188   84  297 1
 189   84  298 1
 190   85  299 1
 191   85  300 1
 192   86   87 am
 193   86   88 2
 194   87   89 1
 195   87  301 1
 196   89   90 1
 197   89  302 1
 198   89  303 1
 199   90   91 1
 200   90  304 1
 201   90  305 1
 202   91   92 1
 203   91  306 1
 204   91  307 1
 205   92   93 1
 206   92  308 1
 207   92  309 1
 208   93   94 1
 209   93   95 1
 210   93  310 1
 211   94   96 am
 212   94   97 2
 213   95   98 am
 214   95  311 1
 215   96  312 1
 216   96  313 1
 217   98   99 2
 218   98  100 1
 219  100  101 1
 220  100  314 1
 221  100  315 1
 222  101  102 1
 223  101  316 1
 224  101  317 1
 225  102  103 am
 226  102  318 1
 227  103  104 2
 228  103  105 1
 229  105  106 1
 230  105  319 1
 231  105  320 1
 232  106  107 1
 233  106  321 1
 234  106  322 1
 235  107  108 1
 236  107  323 1
 237  107  324 1
 238  108  109 1
 239  108  325 1
 240  108  326 1
 241  109  110 1
 242  109  327 1
 243  109  328 1
 244  110  111 am
 245  110  329 1
 246  111  112 2
 247  111  113 1
 248  113  114 1
 249  113  330 1
 250  113  331 1
 251  114  115 am
 252  114  123 1
 253  115  116 1
 254  115  117 2
 255  116  118 1
 256  116  332 1
 257  116  333 1
 258  118  119 am
 259  118  128 1
 260  119  120 1
 261  119  121 2
 262  120  122 1
 263  120  334 1
 264  120  335 1
 265  122  133 am
 266  122  134 1
 267  123  124 1
 268  123  336 1
 269  123  337 1
 270  124  125 1
 271  124  338 1
 272  124  339 1
 273  125  126 1
 274  125  340 1
 275  125  341 1
 276  126  127 1
 277  126  342 1
 278  126  343 1
 279  127  344 1
 280  127  345 1
 281  128  129 1
 282  128  346 1
 283  128  347 1
 284  129  130 1
 285  129  348 1
 286  129  349 1
 287  130  131 1
 288  130  350 1
 289  130  351 1
 290  131  132 1
 291  131  352 1
 292  131  353 1
 293  132  354 1
 294  132  355 1
 295  133  138 1
 296  133  139 2
 297  134  135 1
 298  134  356 1
 299  134  357 1
 300  135  136 1
 301  135  137 1
 302  135  358 1
 303  136  359 1
 304  136  360 1
 305  136  361 1
 306  137  362 1
 307  137  363 1
 308  137  364 1
 309  138  140 1
 310  138  365 1
 311  138  366 1
 312  140  141 am
 313  140  144 1
 314  141  142 1
 315  141  149 2
 316  142  143 1
 317  142  367 1
 318  142  368 1
 319  143  150 am
 320  143  153 1
 321  144  145 1
 322  144  369 1
 323  144  370 1
 324  145  146 1
 325  145  371 1
 326  145  372 1
 327  146  147 1
 328  146  373 1
 329  146  374 1
 330  147  148 1
 331  147  375 1
 332  147  376 1
 333  148  377 1
 334  148  378 1
 335  150  151 1
 336  150  152 2
 337  151  163 1
 338  151  379 1
 339  151  380 1
 340  153  154 1
 341  153  381 1
 342  153  382 1
 343  154  155 ar
 344  154  159 ar
 345  155  156 ar
 346  155  383 1
 347  156  157 ar
 348  156  160 1
 349  157  158 ar
 350  157  162 1
 351  158  159 ar
 352  158  384 1
 353  159  385 1
 354  160  161 1
 355  161  162 1
 356  161  386 1
 357  161  387 1
 358  163  164 am
 359  163  165 1
 360  164  173 1
 361  164  178 2
 362  165  166 1
 363  165  167 1
 364  165  388 1
 365  166  389 1
 366  166  390 1
 367  166  391 1
 368  167  168 ar
 369  167  172 ar
 370  168  169 ar
 371  168  392 1
 372  169  170 ar
 373  169  393 1
 374  170  171 ar
 375  170  394 1
 376  171  172 ar
 377  171  395 1
 378  172  396 1
 379  173  174 1
 380  173  397 1
 381  173  398 1
 382  174  175 am
 383  174  179 1
 384  175  176 1
 385  175  184 2
 386  176  177 1
 387  176  399 1
 388  176  400 1
 389  177  185 am
 390  177  194 1
 391  179  180 1
 392  179  401 1
 393  179  402 1
 394  180  181 1
 395  180  403 1
 396  180  404 1
 397  181  182 1
 398  181  405 1
 399  181  406 1
 400  182  183 1
 401  182  407 1
 402  182  408 1
 403  183  409 1
 404  183  410 1
 405  185  186 1
 406  185  193 2
 407  186  187 1
 408  186  411 1
 409  186  412 1
 410  187  188 1
 411  187  413 1
 412  188  189 1
 413  188  414 1
 414  188  415 1
 415  189  190 1
 416  189  416 1
 417  189  417 1
 418  190  191 1
 419  190  418 1
 420  190  419 1
 421  191  192 1
 422  191  420 1
 423  191  421 1
 424  192  422 1
 425  192  423 1
 426  194  195 1
 427  194  424 1
 428  194  425 1
 429  195  196 1
 430  195  197 1
 431  195  426 1
 432  196  427 1
 433  196  428 1
 434  196  429 1
 435  197  430 1
 436  197  431 1
 437  197  432 1

#	End of record

