#	Name: ASD01900333
#	Creating user name:	WinNT
#	Creation time:	15. 06. 2019 19:51

#	Modifying user name:	WinNT
#	Modification time:	15. 06. 2019 19:51

#	Program:	/corina/corina34_cracker 3.40 0067  02.08.2006

@<TRIPOS>MOLECULE
ASD01900333
  36   38    0    0    0
SMALL
NO_CHARGES


@<TRIPOS>ATOM
   1 C1            -0.0168     1.3891     0.0097 C.ar    
   2 C2             0.0021    -0.0041     0.0020 C.ar    
   3 C3             1.2224    -0.6606    -0.0132 C.ar    
   4 C4             2.3820     0.0992    -0.0202 C.ar    
   5 C5             2.2884     1.4815    -0.0119 C.ar    
   6 N6             1.1169     2.0792     0.0026 N.ar    
   7 C7            -1.3131     2.1060     0.0197 C.2     
   8 O8            -2.3544     1.4790     0.0212 O.2     
   9 N9            -1.3378     3.4535     0.0271 N.am    
  10 N10           -4.0866     5.7298     0.0525 N.am    
  11 C11           -2.7427     5.4762     0.0448 C.2     
  12 C12           -2.5683     4.1341     0.0367 C.2     
  13 C13           -3.8517     3.5436     0.0395 C.2     
  14 C14           -4.7569     4.5428     0.0492 C.2     
  15 S15           -4.7846     7.2314     0.0702 S.o2    
  16 O16           -6.0849     7.0631     0.6180 O.2     
  17 O17           -3.8183     8.1166     0.6197 O.2     
  18 C18           -5.0109     7.7211    -1.6072 C.2     
  19 C19           -6.0981     7.4755    -2.3400 C.2     
  20 C20           -6.0492     7.9586    -3.6362 C.2     
  21 C21           -4.9223     8.5966    -3.9561 C.2     
  22 S22           -3.8410     8.6153    -2.5691 S.3     
  23 C23           -4.6235     9.2117    -5.2990 C.3     
  24 H24           -0.9212    -0.5644     0.0082 H       
  25 H25            1.2690    -1.7395    -0.0191 H       
  26 H26            3.3489    -0.3818    -0.0317 H       
  27 H27            3.1898     2.0763    -0.0170 H       
  28 H28           -0.5068     3.9539     0.0259 H       
  29 H29           -1.9574     6.2177     0.0448 H       
  30 H30           -4.0681     2.4856     0.0351 H       
  31 H31           -5.8302     4.4231     0.0537 H       
  32 H32           -6.9517     6.9399    -1.9514 H       
  33 H33           -6.8617     7.8285    -4.3357 H       
  34 H34           -4.9644    10.2470    -5.3084 H       
  35 H35           -3.5493     9.1812    -5.4817 H       
  36 H36           -5.1406     8.6519    -6.0783 H       
@<TRIPOS>BOND
   1    1    2 ar
   2    1    6 ar
   3    1    7 1
   4    2    3 ar
   5    2   24 1
   6    3    4 ar
   7    3   25 1
   8    4    5 ar
   9    4   26 1
  10    5    6 ar
  11    5   27 1
  12    7    8 2
  13    7    9 am
  14    9   12 1
  15    9   28 1
  16   10   11 1
  17   10   14 1
  18   10   15 am
  19   11   12 2
  20   11   29 1
  21   12   13 1
  22   13   14 2
  23   13   30 1
  24   14   31 1
  25   15   16 2
  26   15   17 2
  27   15   18 1
  28   18   19 2
  29   18   22 1
  30   19   20 1
  31   19   32 1
  32   20   21 2
  33   20   33 1
  34   21   22 1
  35   21   23 1
  36   23   34 1
  37   23   35 1
  38   23   36 1

#	End of record

