#	Name: ASD01917031
#	Creating user name:	WinNT
#	Creation time:	15. 06. 2019 20:08

#	Modifying user name:	WinNT
#	Modification time:	15. 06. 2019 20:08

#	Program:	/corina/corina34_cracker 3.40 0067  02.08.2006

@<TRIPOS>MOLECULE
ASD01917031
  18   19    0    0    0
SMALL
NO_CHARGES


@<TRIPOS>ATOM
   1 N1            -0.0170     1.4001     0.0097 N.pl3   
   2 N2             0.0021    -0.0041     0.0020 N.2     
   3 C3             1.2661    -0.3656    -0.0120 C.2     
   4 N4             2.0286     0.7364    -0.0134 N.2     
   5 C5             1.2681     1.8003    -0.0004 C.2     
   6 C6             1.7658    -1.7629    -0.0235 C.ar    
   7 C7             3.1359    -2.0154    -0.0380 C.ar    
   8 C8             3.5952    -3.3169    -0.0482 C.ar    
   9 C9             2.6979    -4.3696    -0.0441 C.ar    
  10 C10            1.3366    -4.1247    -0.0301 C.ar    
  11 C11            0.8665    -2.8271    -0.0140 C.ar    
  12 Br12           1.8704     3.5928     0.0029 Br      
  13 H13           -0.8021     1.9697     0.0167 H       
  14 H14            3.8373    -1.1942    -0.0417 H       
  15 H15            4.6570    -3.5137    -0.0599 H       
  16 H16            3.0616    -5.3865    -0.0521 H       
  17 H17            0.6404    -4.9503    -0.0273 H       
  18 H18           -0.1965    -2.6370     0.0017 H       
@<TRIPOS>BOND
   1    1    2 1
   2    1    5 1
   3    1   13 1
   4    2    3 2
   5    3    4 1
   6    3    6 1
   7    4    5 2
   8    5   12 1
   9    6    7 ar
  10    6   11 ar
  11    7    8 ar
  12    7   14 1
  13    8    9 ar
  14    8   15 1
  15    9   10 ar
  16    9   16 1
  17   10   11 ar
  18   10   17 1
  19   11   18 1

#	End of record

