#	Name: ASD00840527
#	Creating user name:	WinNT
#	Creation time:	15. 06. 2019 18:39

#	Modifying user name:	WinNT
#	Modification time:	15. 06. 2019 18:39

#	Program:	/corina/corina34_cracker 3.40 0067  02.08.2006

@<TRIPOS>MOLECULE
ASD00840527
  94   99    0    0    0
SMALL
NO_CHARGES


@<TRIPOS>ATOM
   1 N1             1.0875     1.4611    -0.7340 N.ar    
   2 C2             1.3451     0.1689    -0.8466 C.ar    
   3 C3             1.2539    -0.6698     0.2571 C.ar    
   4 C4             0.8892    -0.1356     1.4804 C.ar    
   5 C5             0.6271     1.2256     1.5567 C.ar    
   6 C6             0.7374     1.9995     0.4189 C.ar    
   7 C7             1.5479    -2.1419     0.1239 C.3     
   8 C8             1.2537    -2.8612     1.4231 C.2     
   9 C9             0.7338    -2.7483    -1.0208 C.3     
  10 C10           -0.7291    -2.4570    -0.8061 C.2     
  11 N11           -1.6494    -2.9759    -1.6428 N.am    
  12 O12           -1.0783    -1.7556     0.1197 O.2     
  13 C13           -3.0702    -2.6164    -1.5190 C.3     
  14 C14           -3.5815    -2.1723    -2.8936 C.3     
  15 N15           -3.2894    -3.2184    -3.8826 N.3     
  16 C16           -1.8422    -3.4215    -4.0319 C.3     
  17 C17           -1.2588    -3.9121    -2.7078 C.3     
  18 C18           -3.9138    -2.9093    -5.1759 C.3     
  19 C19           -3.4870    -3.9523    -6.2125 C.3     
  20 C20           -4.1881    -3.6605    -7.5412 C.3     
  21 N21           -5.6432    -3.7032    -7.3480 N.3     
  22 C22           -6.0822    -2.6786    -6.3920 C.3     
  23 C23           -5.4376    -2.9411    -5.0290 C.3     
  24 C24           -6.3486    -3.5647    -8.6290 C.3     
  25 O25            0.1774    -2.9357     1.9775 O.2     
  26 N26            2.4087    -3.4011     1.8470 N.am    
  27 C27            3.0260    -2.3689    -0.0954 C.ar    
  28 C28            3.4681    -3.1310     0.9790 C.ar    
  29 C29            3.8955    -1.9770    -1.0882 C.ar    
  30 C30            5.2295    -2.3429    -1.0226 C.ar    
  31 C31            5.6831    -3.1029     0.0438 C.ar    
  32 C32            4.8108    -3.4965     1.0405 C.ar    
  33 Cl33           6.3298    -1.8517    -2.2723 Cl      
  34 F34            6.9842    -3.4607     0.1091 F       
  35 C35            2.2629    -5.9711     2.8205 C.ar    
  36 C36            1.0102    -6.3647     2.3722 C.ar    
  37 C37            3.2806    -6.8992     2.9337 C.ar    
  38 C38            3.0538    -8.2206     2.6004 C.ar    
  39 C39            1.8024    -8.6193     2.1514 C.ar    
  40 C40            0.7799    -7.6904     2.0375 C.ar    
  41 O41            1.5798    -9.9194     1.8242 O.3     
  42 O42            0.0097    -5.4517     2.2615 O.3     
  43 C43           -1.2538    -5.9274     1.7934 C.3     
  44 C44            2.6788   -10.8216     1.9665 C.3     
  45 C45           -7.8359    -3.8611    -8.4269 C.3     
  46 S46            2.5584    -4.2853     3.2391 S.o2    
  47 O47            3.9239    -4.2006     3.6234 O.2     
  48 O48            1.4872    -3.8879     4.0840 O.2     
  49 O49            1.7013    -0.3428    -2.0516 O.3     
  50 C50            2.2105    -0.1700    -4.4078 C.3     
  51 C51            1.6696     0.5472    -3.1693 C.3     
  52 H52            0.8098    -0.7632     2.3556 H       
  53 H53            0.3397     1.6743     2.4961 H       
  54 H54            0.5350     3.0590     0.4729 H       
  55 H55            1.0560    -2.3124    -1.9665 H       
  56 H56            0.8897    -3.8268    -1.0460 H       
  57 H57           -3.6387    -3.4821    -1.1791 H       
  58 H58           -3.1804    -1.7995    -0.8059 H       
  59 H59           -4.6579    -2.0076    -2.8455 H       
  60 H60           -3.0843    -1.2471    -3.1851 H       
  61 H61           -1.6572    -4.1627    -4.8093 H       
  62 H62           -1.3692    -2.4789    -4.3075 H       
  63 H63           -0.1720    -3.9544    -2.7799 H       
  64 H64           -1.6522    -4.9025    -2.4790 H       
  65 H65           -3.5992    -1.9189    -5.5048 H       
  66 H66           -2.4071    -3.9052    -6.3528 H       
  67 H67           -3.7662    -4.9468    -5.8644 H       
  68 H68           -3.8976    -2.6715    -7.8955 H       
  69 H69           -3.8973    -4.4098    -8.2774 H       
  70 H70           -5.7828    -1.6942    -6.7518 H       
  71 H71           -7.1671    -2.7147    -6.2937 H       
  72 H72           -5.7476    -3.9196    -4.6623 H       
  73 H73           -5.7514    -2.1714    -4.3238 H       
  74 H74           -6.2282    -2.5476    -9.0020 H       
  75 H75           -5.9328    -4.2679    -9.3507 H       
  76 H76            3.5375    -1.3851    -1.9176 H       
  77 H77            5.1708    -4.0885     1.8690 H       
  78 H78            4.2550    -6.5909     3.2829 H       
  79 H79            3.8509    -8.9439     2.6890 H       
  80 H80           -0.1946    -7.9988     1.6886 H       
  81 H81           -1.6289    -6.6920     2.4737 H       
  82 H82           -1.9612    -5.0992     1.7520 H       
  83 H83           -1.1351    -6.3540     0.7973 H       
  84 H84            3.5011   -10.4959     1.3294 H       
  85 H85            3.0071   -10.8333     3.0058 H       
  86 H86            2.3666   -11.8237     1.6728 H       
  87 H87           -7.9563    -4.8782    -8.0539 H       
  88 H88           -8.2517    -3.1578    -7.7053 H       
  89 H89           -8.3594    -3.7583    -9.3774 H       
  90 H90            1.5440    -0.9910    -4.6723 H       
  91 H91            2.2682     0.5332    -5.2386 H       
  92 H92            3.2045    -0.5632    -4.1948 H       
  93 H93            0.6429     0.8642    -3.3523 H       
  94 H94            2.2869     1.4200    -2.9563 H       
@<TRIPOS>BOND
   1    1    2 ar
   2    1    6 ar
   3    2    3 ar
   4    2   49 1
   5    3    4 ar
   6    3    7 1
   7    4    5 ar
   8    4   52 1
   9    5    6 ar
  10    5   53 1
  11    6   54 1
  12    7    8 1
  13    7    9 1
  14    7   27 1
  15    8   25 2
  16    8   26 am
  17    9   10 1
  18    9   55 1
  19    9   56 1
  20   10   11 am
  21   10   12 2
  22   11   13 1
  23   11   17 1
  24   13   14 1
  25   13   57 1
  26   13   58 1
  27   14   15 1
  28   14   59 1
  29   14   60 1
  30   15   16 1
  31   15   18 1
  32   16   17 1
  33   16   61 1
  34   16   62 1
  35   17   63 1
  36   17   64 1
  37   18   19 1
  38   18   23 1
  39   18   65 1
  40   19   20 1
  41   19   66 1
  42   19   67 1
  43   20   21 1
  44   20   68 1
  45   20   69 1
  46   21   22 1
  47   21   24 1
  48   22   23 1
  49   22   70 1
  50   22   71 1
  51   23   72 1
  52   23   73 1
  53   24   45 1
  54   24   74 1
  55   24   75 1
  56   26   46 am
  57   26   28 1
  58   27   28 ar
  59   27   29 ar
  60   28   32 ar
  61   29   30 ar
  62   29   76 1
  63   30   31 ar
  64   30   33 1
  65   31   32 ar
  66   31   34 1
  67   32   77 1
  68   35   36 ar
  69   35   37 ar
  70   35   46 1
  71   36   42 1
  72   36   40 ar
  73   37   38 ar
  74   37   78 1
  75   38   39 ar
  76   38   79 1
  77   39   40 ar
  78   39   41 1
  79   40   80 1
  80   41   44 1
  81   42   43 1
  82   43   81 1
  83   43   82 1
  84   43   83 1
  85   44   84 1
  86   44   85 1
  87   44   86 1
  88   45   87 1
  89   45   88 1
  90   45   89 1
  91   46   47 2
  92   46   48 2
  93   49   51 1
  94   50   51 1
  95   50   90 1
  96   50   91 1
  97   50   92 1
  98   51   93 1
  99   51   94 1

#	End of record

