#	Name: ASD03240714
#	Creating user name:	WinNT
#	Creation time:	15. 06. 2019 20:35

#	Modifying user name:	WinNT
#	Modification time:	15. 06. 2019 20:35

#	Program:	/corina/corina34_cracker 3.40 0067  02.08.2006

@<TRIPOS>MOLECULE
ASD03240714
  62   67    0    0    0
SMALL
NO_CHARGES


@<TRIPOS>ATOM
   1 N1            -0.0178     1.4642     0.0101 N.3     
   2 C2             0.0021    -0.0041     0.0020 C.3     
   3 C3             0.7039    -0.5130     1.2631 C.3     
   4 C4             2.1331     0.0352     1.3025 C.3     
   5 C5             2.0858     1.5651     1.2611 C.3     
   6 C6             1.3439     2.0138     0.0000 C.3     
   7 N7             2.7928    -0.4022     2.5399 N.3     
   8 C8            -0.8045     1.9863    -1.1153 C.3     
   9 C9            -1.0092     3.4690    -0.9402 C.ar    
  10 C10           -0.0910     4.3584    -1.4693 C.ar    
  11 C11           -0.2730     5.7171    -1.3127 C.ar    
  12 C12           -1.3857     6.1934    -0.6192 C.ar    
  13 C13           -2.3079     5.2916    -0.0881 C.ar    
  14 C14           -2.1175     3.9353    -0.2560 C.ar    
  15 C15            0.2757    11.9092     0.1996 C.2     
  16 N16           -0.9399    12.4844     0.2013 N.2     
  17 C17           -2.0370    11.7884     0.0495 C.2     
  18 C18           -1.9409    10.3410    -0.1283 C.ar    
  19 C19           -0.6623     9.7434    -0.1287 C.ar    
  20 N20            0.4396    10.5599     0.0390 N.pl3   
  21 C21           -3.0775     9.5434    -0.2957 C.ar    
  22 C22           -2.8941     8.1738    -0.4578 C.ar    
  23 C23           -1.5868     7.6504    -0.4471 C.ar    
  24 N24           -0.5336     8.4377    -0.2864 N.ar    
  25 N25            1.8119    10.2859     0.0849 N.2     
  26 C26            2.4617    11.4107     0.2650 C.2     
  27 C27            1.5451    12.4513     0.3479 C.2     
  28 C28           -4.0604     7.2766    -0.6389 C.ar    
  29 C29           -5.1405     7.3471     0.2395 C.ar    
  30 C30           -6.2236     6.5098     0.0657 C.ar    
  31 C31           -6.2387     5.6014    -0.9775 C.ar    
  32 C32           -5.1695     5.5267    -1.8521 C.ar    
  33 C33           -4.0837     6.3632    -1.6918 C.ar    
  34 C34            3.9584    11.5507     0.3705 C.3     
  35 H35           -1.0204    -0.3810    -0.0218 H       
  36 H36            0.5390    -0.3552    -0.8792 H       
  37 H37            0.1597    -0.1738     2.1445 H       
  38 H38            0.7324    -1.6025     1.2493 H       
  39 H39            2.6892    -0.3354     0.4414 H       
  40 H40            1.5633     1.9370     2.1425 H       
  41 H41            3.1015     1.9603     1.2458 H       
  42 H42            1.8745     1.6533    -0.8812 H       
  43 H43            1.2960     3.1025    -0.0252 H       
  44 H44            3.7380    -0.0526     2.5889 H       
  45 H45            2.2616    -0.1231     3.3511 H       
  46 H46           -0.2719     1.8007    -2.0480 H       
  47 H47           -1.7729     1.4868    -1.1444 H       
  48 H48            0.7703     3.9884    -2.0056 H       
  49 H49            0.4446     6.4104    -1.7258 H       
  50 H50           -3.1712     5.6543     0.4501 H       
  51 H51           -2.8330     3.2363     0.1512 H       
  52 H52           -3.0004    12.2766     0.0553 H       
  53 H53           -4.0666     9.9770    -0.2984 H       
  54 H54            1.7784    13.4950     0.4987 H       
  55 H55           -5.1296     8.0554     1.0547 H       
  56 H56           -7.0610     6.5635     0.7456 H       
  57 H57           -7.0883     4.9479    -1.1095 H       
  58 H58           -5.1865     4.8153    -2.6645 H       
  59 H59           -3.2514     6.3071    -2.3778 H       
  60 H60            4.3790    11.7134    -0.6218 H       
  61 H61            4.1997    12.3991     1.0109 H       
  62 H62            4.3792    10.6410     0.7988 H       
@<TRIPOS>BOND
   1    1    2 1
   2    1    6 1
   3    1    8 1
   4    2    3 1
   5    2   35 1
   6    2   36 1
   7    3    4 1
   8    3   37 1
   9    3   38 1
  10    4    5 1
  11    4    7 1
  12    4   39 1
  13    5    6 1
  14    5   40 1
  15    5   41 1
  16    6   42 1
  17    6   43 1
  18    7   44 1
  19    7   45 1
  20    8    9 1
  21    8   46 1
  22    8   47 1
  23    9   10 ar
  24    9   14 ar
  25   10   11 ar
  26   10   48 1
  27   11   12 ar
  28   11   49 1
  29   12   13 ar
  30   12   23 1
  31   13   14 ar
  32   13   50 1
  33   14   51 1
  34   15   16 1
  35   15   20 1
  36   15   27 2
  37   16   17 2
  38   17   18 1
  39   17   52 1
  40   18   19 ar
  41   18   21 ar
  42   19   20 1
  43   19   24 ar
  44   20   25 1
  45   21   22 ar
  46   21   53 1
  47   22   23 ar
  48   22   28 1
  49   23   24 ar
  50   25   26 2
  51   26   27 1
  52   26   34 1
  53   27   54 1
  54   28   29 ar
  55   28   33 ar
  56   29   30 ar
  57   29   55 1
  58   30   31 ar
  59   30   56 1
  60   31   32 ar
  61   31   57 1
  62   32   33 ar
  63   32   58 1
  64   33   59 1
  65   34   60 1
  66   34   61 1
  67   34   62 1

#	End of record

