#	Name: ASD01916053
#	Creating user name:	WinNT
#	Creation time:	15. 06. 2019 20:06

#	Modifying user name:	WinNT
#	Modification time:	15. 06. 2019 20:06

#	Program:	/corina/corina34_cracker 3.40 0067  02.08.2006

@<TRIPOS>MOLECULE
ASD01916053
  43   45    0    0    0
SMALL
NO_CHARGES


@<TRIPOS>ATOM
   1 C1            -0.0169     1.3974     0.0097 C.ar    
   2 C2             0.0021    -0.0041     0.0020 C.ar    
   3 C3            -1.2070    -0.6758     0.0095 C.ar    
   4 C4            -2.3852     0.0496     0.0241 C.ar    
   5 C5            -3.7040    -0.6796     0.0328 C.3     
   6 C6             1.2059     2.1425     0.0021 C.1     
   7 C7             2.2084     2.7534    -0.0042 C.1     
   8 C8             3.4313     3.4985    -0.0119 C.ar    
   9 C9             3.4019     4.8954    -0.0041 C.ar    
  10 C10            5.8345     3.5576    -0.0283 C.ar    
  11 C11            4.5832     5.6078    -0.0111 C.ar    
  12 N12           -2.3736     1.3688     0.0311 N.ar    
  13 C13           -1.2496     2.0547     0.0192 C.ar    
  14 C14            4.6592     2.8319    -0.0214 C.ar    
  15 C15            5.7962     4.9432    -0.0262 C.ar    
  16 C16           -4.1300    -1.0446    -1.4081 C.3     
  17 C17           -3.5656    -2.0158     0.7285 C.2     
  18 N18           -4.1791    -2.9748     0.0139 N.am    
  19 C19           -4.7925    -2.4247    -1.2006 C.3     
  20 C20           -4.2295    -4.3876     0.3983 C.3     
  21 O21           -2.9850    -2.1956     1.7780 O.2     
  22 C22           -6.3014    -2.2636    -1.0055 C.3     
  23 C23           -4.5065    -3.3345    -2.3970 C.3     
  24 F24            7.0232     2.9158    -0.0426 F       
  25 H25            0.9365    -0.5454    -0.0098 H       
  26 H26           -1.2312    -1.7555     0.0035 H       
  27 H27           -4.4708    -0.0736     0.5153 H       
  28 H28            2.4560     5.4165     0.0070 H       
  29 H29            4.5608     6.6876    -0.0051 H       
  30 H30           -1.2809     3.1342     0.0258 H       
  31 H31            4.6893     1.7523    -0.0229 H       
  32 H32            6.7177     5.5065    -0.0312 H       
  33 H33           -4.8473    -0.3222    -1.7977 H       
  34 H34           -3.2625    -1.1230    -2.0634 H       
  35 H35           -3.6983    -4.5271     1.3398 H       
  36 H36           -5.2684    -4.6947     0.5182 H       
  37 H37           -3.7591    -4.9921    -0.3773 H       
  38 H38           -6.4899    -1.6064    -0.1566 H       
  39 H39           -6.7399    -1.8307    -1.9045 H       
  40 H40           -6.7494    -3.2391    -0.8162 H       
  41 H41           -4.9414    -4.3178    -2.2179 H       
  42 H42           -4.9452    -2.9014    -3.2959 H       
  43 H43           -3.4290    -3.4326    -2.5295 H       
@<TRIPOS>BOND
   1    1    2 ar
   2    1    6 1
   3    1   13 ar
   4    2    3 ar
   5    2   25 1
   6    3    4 ar
   7    3   26 1
   8    4   12 ar
   9    4    5 1
  10    5   16 1
  11    5   17 1
  12    5   27 1
  13    6    7 3
  14    7    8 1
  15    8    9 ar
  16    8   14 ar
  17    9   11 ar
  18    9   28 1
  19   10   15 ar
  20   10   24 1
  21   10   14 ar
  22   11   15 ar
  23   11   29 1
  24   12   13 ar
  25   13   30 1
  26   14   31 1
  27   15   32 1
  28   16   19 1
  29   16   33 1
  30   16   34 1
  31   17   18 am
  32   17   21 2
  33   18   19 1
  34   18   20 1
  35   19   22 1
  36   19   23 1
  37   20   35 1
  38   20   36 1
  39   20   37 1
  40   22   38 1
  41   22   39 1
  42   22   40 1
  43   23   41 1
  44   23   42 1
  45   23   43 1

#	End of record

