#	Name: ASD01151039
#	Creating user name:	WinNT
#	Creation time:	15. 06. 2019 19:05

#	Modifying user name:	WinNT
#	Modification time:	15. 06. 2019 19:05

#	Program:	/corina/corina34_cracker 3.40 0067  02.08.2006

@<TRIPOS>MOLECULE
ASD01151039
  42   44    0    0    0
SMALL
NO_CHARGES


@<TRIPOS>ATOM
   1 C1            -0.1783     1.0701    -0.0449 C.3     
   2 C2             0.0327    -0.4431     0.0353 C.3     
   3 C3             1.0282    -0.7810     1.1709 C.3     
   4 C4             1.9035    -1.9227     0.5875 C.3     
   5 C5             2.0679    -1.4989    -0.8899 C.3     
   6 C6             0.6601    -0.9500    -1.2494 C.3     
   7 C7             0.8069     0.0851    -2.3557 C.3     
   8 C8             1.7334    -0.5097    -3.4275 C.3     
   9 C9             1.2218    -1.8735    -3.8868 C.3     
  10 C10            1.0216    -2.8145    -2.6888 C.3     
  11 C11           -0.0911    -2.1755    -1.8101 C.3     
  12 C12            2.2770    -2.7252    -1.7890 C.3     
  13 C13            3.5292    -2.5409    -2.6486 C.3     
  14 C14            2.4042    -3.9886    -0.9354 C.3     
  15 C15           -0.1128    -1.6920    -4.6126 C.3     
  16 O16            2.1701    -2.4530    -4.7851 O.3     
  17 H17            0.7785     1.5616    -0.2210 H       
  18 H18           -0.8605     1.2989    -0.8637 H       
  19 H19           -0.6034     1.4279     0.8929 H       
  20 H20           -0.9191    -0.9444     0.2109 H       
  21 H21            1.6432     0.0868     1.4092 H       
  22 H22            0.4937    -1.1251     2.0563 H       
  23 H23            2.8708    -1.9631     1.0883 H       
  24 H24            1.3887    -2.8807     0.6602 H       
  25 H25            2.8468    -0.7467    -1.0150 H       
  26 H26           -0.1688     0.3033    -2.7899 H       
  27 H27            1.2457     0.9977    -1.9525 H       
  28 H28            1.7732     0.1653    -4.2823 H       
  29 H29            2.7352    -0.6230    -3.0133 H       
  30 H30            0.7832    -3.8335    -2.9938 H       
  31 H31           -0.3975    -2.8497    -1.0103 H       
  32 H32           -0.9451    -1.8713    -2.4152 H       
  33 H33            3.3120    -1.8506    -3.4637 H       
  34 H34            4.3346    -2.1370    -2.0353 H       
  35 H35            3.8330    -3.5038    -3.0591 H       
  36 H36            2.6306    -4.8398    -1.5777 H       
  37 H37            3.2069    -3.8575    -0.2097 H       
  38 H38            1.4659    -4.1687    -0.4108 H       
  39 H39            0.0505    -1.1473    -5.5425 H       
  40 H40           -0.5417    -2.6692    -4.8344 H       
  41 H41           -0.7981    -1.1301    -3.9779 H       
  42 H42            2.3339    -1.9250    -5.5785 H       
@<TRIPOS>BOND
   1    1    2 1
   2    1   17 1
   3    1   18 1
   4    1   19 1
   5    2    3 1
   6    2    6 1
   7    2   20 1
   8    3    4 1
   9    3   21 1
  10    3   22 1
  11    4    5 1
  12    4   23 1
  13    4   24 1
  14    5    6 1
  15    5   12 1
  16    5   25 1
  17    6    7 1
  18    6   11 1
  19    7    8 1
  20    7   26 1
  21    7   27 1
  22    8    9 1
  23    8   28 1
  24    8   29 1
  25    9   15 1
  26    9   16 1
  27    9   10 1
  28   10   11 1
  29   10   12 1
  30   10   30 1
  31   11   31 1
  32   11   32 1
  33   12   13 1
  34   12   14 1
  35   13   33 1
  36   13   34 1
  37   13   35 1
  38   14   36 1
  39   14   37 1
  40   14   38 1
  41   15   39 1
  42   15   40 1
  43   15   41 1
  44   16   42 1

#	End of record

