#	Name: ASD01478083
#	Creating user name:	WinNT
#	Creation time:	15. 06. 2019 19:21

#	Modifying user name:	WinNT
#	Modification time:	15. 06. 2019 19:21

#	Program:	/corina/corina34_cracker 3.40 0067  02.08.2006

@<TRIPOS>MOLECULE
ASD01478083
  42   43    0    0    0
SMALL
NO_CHARGES


@<TRIPOS>ATOM
   1 O1             0.3318     2.0324    -0.3001 O.3     
   2 C2             0.3467     0.6573    -0.6887 C.3     
   3 C3            -0.5715    -0.1441     0.2363 C.3     
   4 S4             0.4208    -1.3031     1.2174 S.o2    
   5 C5             0.3540    -0.5506     2.8666 C.3     
   6 C6             1.7315     0.0083     3.2284 C.3     
   7 O7             1.6566     1.4318     3.3288 O.3     
   8 C8             2.4642     2.1250     2.3752 C.3     
   9 C9             1.5770     3.0282     1.5161 C.3     
  10 C10            1.6141     2.5473     0.0641 C.3     
  11 O11            0.2121     2.9757     2.0086 O.3     
  12 C12           -0.5412     4.0776     1.8390 C.2     
  13 O13           -0.0716     5.0563     1.2946 O.2     
  14 O14           -1.8150     4.0951     2.2727 O.3     
  15 C15           -2.5535     5.1966     1.9742 C.ar    
  16 C16           -3.0545     5.3707     0.6924 C.ar    
  17 C17           -3.8052     6.4908     0.3916 C.ar    
  18 C18           -4.0568     7.4381     1.3668 C.ar    
  19 C19           -3.5585     7.2669     2.6451 C.ar    
  20 C20           -2.8122     6.1457     2.9523 C.ar    
  21 N21           -4.8605     8.6378     1.0416 N.pl3   
  22 O22           -5.2996     8.7898    -0.0843 O.2     
  23 O23           -5.0828     9.4729     1.8999 O.2     
  24 O24           -0.2549    -2.5524     1.2620 O.2     
  25 O25            1.7628    -1.2563     0.7524 O.2     
  26 H26           -0.0042     0.5665    -1.7167 H       
  27 H27            1.3630     0.2702    -0.6161 H       
  28 H28           -1.0996     0.5373     0.9034 H       
  29 H29           -1.2940    -0.6999    -0.3614 H       
  30 H30           -0.3777     0.2573     2.8680 H       
  31 H31            0.0641    -1.3046     3.5985 H       
  32 H32            2.0527    -0.4069     4.1837 H       
  33 H33            2.4489    -0.2641     2.4543 H       
  34 H34            3.2030     2.7325     2.8980 H       
  35 H35            2.9736     1.4029     1.7371 H       
  36 H36            1.9431     4.0535     1.5688 H       
  37 H37            2.3636     1.7628    -0.0398 H       
  38 H38            1.8691     3.3822    -0.5887 H       
  39 H39           -2.8576     4.6314    -0.0699 H       
  40 H40           -4.1954     6.6268    -0.6062 H       
  41 H41           -3.7562     8.0084     3.4050 H       
  42 H42           -2.4266     6.0103     3.9521 H       
@<TRIPOS>BOND
   1    1    2 1
   2    1   10 1
   3    2    3 1
   4    2   26 1
   5    2   27 1
   6    3    4 1
   7    3   28 1
   8    3   29 1
   9    4    5 1
  10    4   24 2
  11    4   25 2
  12    5    6 1
  13    5   30 1
  14    5   31 1
  15    6    7 1
  16    6   32 1
  17    6   33 1
  18    7    8 1
  19    8    9 1
  20    8   34 1
  21    8   35 1
  22    9   10 1
  23    9   11 1
  24    9   36 1
  25   10   37 1
  26   10   38 1
  27   11   12 1
  28   12   13 2
  29   12   14 1
  30   14   15 1
  31   15   16 ar
  32   15   20 ar
  33   16   17 ar
  34   16   39 1
  35   17   18 ar
  36   17   40 1
  37   18   19 ar
  38   18   21 1
  39   19   20 ar
  40   19   41 1
  41   20   42 1
  42   21   22 2
  43   21   23 2

#	End of record

