#	Name: ASD00960131
#	Creating user name:	WinNT
#	Creation time:	15. 06. 2019 18:53

#	Modifying user name:	WinNT
#	Modification time:	15. 06. 2019 18:53

#	Program:	/corina/corina34_cracker 3.40 0067  02.08.2006

@<TRIPOS>MOLECULE
ASD00960131
  41   44    0    0    0
SMALL
NO_CHARGES


@<TRIPOS>ATOM
   1 C1            -0.8394     2.2265    -0.4011 C.3     
   2 C2            -0.3146     0.7753    -0.3308 C.3     
   3 O3            -1.1341     0.1347     0.6711 O.3     
   4 C4            -1.2900     1.1157     1.7195 C.3     
   5 C5            -2.5134     0.7882     2.5779 C.3     
   6 C6            -0.4837     0.0911    -1.6628 C.2     
   7 C7             0.3900     0.1627    -2.6961 C.2     
   8 N8            -1.5290    -0.6950    -2.0109 N.pl3   
   9 C9            -1.3355    -1.1424    -3.3020 C.2     
  10 C10           -0.1273    -0.6111    -3.7533 C.2     
  11 N11           -2.6880    -1.1012    -1.3338 N.2     
  12 C12           -3.5501    -1.8823    -1.9254 C.2     
  13 N13           -3.3746    -2.3203    -3.1702 N.2     
  14 C14           -2.3080    -1.9845    -3.8788 C.2     
  15 N15           -2.1500    -2.4531    -5.1683 N.pl3   
  16 C16           -1.4959     2.4556     0.9787 C.3     
  17 C17            0.4885    -0.8189    -5.0793 C.2     
  18 O18           -2.3341    -0.4878     3.1957 O.3     
  19 N19           -0.1394    -0.7547    -6.2937 N.pl3   
  20 N20            0.8445    -1.0195    -7.2581 N.2     
  21 N21            1.9614    -1.2227    -6.6520 N.2     
  22 C22            1.7980    -1.1072    -5.3364 C.2     
  23 O23           -0.8410     3.5182     1.6745 O.3     
  24 *24           -1.4123     4.7878     1.4512 Du      
  25 N25           -0.0847     1.1699     2.5506 N.2     
  26 N26            0.2462     0.2594     3.1206 N.1     
  27 N27            0.5771    -0.6511     3.6906 N.pl3   
  28 O28            0.2409     3.1406    -0.5996 O.3     
  29 *29           -0.1154     4.3032    -1.3134 Du      
  30 H30           -1.5758     2.3281    -1.1983 H       
  31 H31            0.7325     0.7647    -0.0280 H       
  32 H32           -2.6320     1.5510     3.3474 H       
  33 H33           -3.4032     0.7654     1.9486 H       
  34 H34            1.3180     0.7151    -2.7071 H       
  35 H35           -4.4361    -2.1839    -1.3864 H       
  36 H36           -2.8854    -2.9008    -5.6151 H       
  37 H37           -1.3036    -2.3346    -5.6272 H       
  38 H38           -2.5585     2.6699     0.8652 H       
  39 H39           -3.0731    -0.7607     3.7564 H       
  40 H40           -1.0768    -0.5647    -6.4552 H       
  41 H41            2.5726    -1.2284    -4.5936 H       
@<TRIPOS>BOND
   1    1    2 1
   2    1   28 1
   3    1   16 1
   4    1   30 1
   5    2    3 1
   6    2    6 1
   7    2   31 1
   8    3    4 1
   9    4    5 1
  10    4   25 1
  11    4   16 1
  12    5   18 1
  13    5   32 1
  14    5   33 1
  15    6    7 2
  16    6    8 1
  17    7   10 1
  18    7   34 1
  19    8    9 1
  20    8   11 1
  21    9   10 2
  22    9   14 1
  23   10   17 1
  24   11   12 2
  25   12   13 1
  26   12   35 1
  27   13   14 2
  28   14   15 1
  29   15   36 1
  30   15   37 1
  31   16   23 1
  32   16   38 1
  33   17   19 1
  34   17   22 2
  35   18   39 1
  36   19   20 1
  37   19   40 1
  38   20   21 2
  39   21   22 1
  40   22   41 1
  41   23   24 1
  42   25   26 2
  43   26   27 2
  44   28   29 1

#	End of record

