#	Name: ASD03430265
#	Creating user name:	WinNT
#	Creation time:	15. 06. 2019 20:40

#	Modifying user name:	WinNT
#	Modification time:	15. 06. 2019 20:40

#	Program:	/corina/corina34_cracker 3.40 0067  02.08.2006

@<TRIPOS>MOLECULE
ASD03430265
  69   74    0    0    0
SMALL
NO_CHARGES


@<TRIPOS>ATOM
   1 C1            -0.0065     1.3756     0.0267 C.ar    
   2 C2             0.0096    -0.0107     0.0203 C.ar    
   3 C3             1.2091    -0.6908     0.0104 C.ar    
   4 C4             2.4163     0.0014     0.0176 C.ar    
   5 C5             2.3965     1.3925     0.0207 C.ar    
   6 C6             1.1932     2.0777     0.0262 C.ar    
   7 O7             3.4772    -0.8555     0.0341 O.3     
   8 C8             1.5546    -2.1555    -0.0208 C.3     
   9 C9             3.0423    -2.1588    -0.3984 C.3     
  10 C10            0.4201    -3.8665     1.0311 C.ar    
  11 C11            1.3094    -2.8280     1.2972 C.ar    
  12 C12            0.7251    -2.9152    -1.0158 C.2     
  13 N13            0.0986    -3.8907    -0.3281 N.am    
  14 O14            0.6358    -2.6940    -2.2049 O.2     
  15 C15            1.7679    -2.6090     2.5766 C.ar    
  16 C16            1.3465    -3.4236     3.6130 C.ar    
  17 C17            0.4641    -4.4576     3.3603 C.ar    
  18 C18            0.0019    -4.6814     2.0797 C.ar    
  19 O19           -1.1997     2.0314     0.0277 O.3     
  20 C20           -1.1747     3.4126     0.4042 C.3     
  21 C21           -0.0168     4.0919    -0.3395 C.3     
  22 O22            1.2010     3.4393     0.0347 O.3     
  23 C23           -0.8127    -4.8637    -0.9357 C.3     
  24 C24           -2.2409    -4.3160    -0.9003 C.3     
  25 C25           -3.1926    -5.3322    -1.5348 C.3     
  26 C26           -3.2253    -6.6041    -0.6816 C.3     
  27 N27           -4.2383    -7.5159    -1.2307 N.am    
  28 C28           -4.6002    -4.7363    -1.6093 C.3     
  29 C29           -5.5461    -5.7394    -2.2737 C.3     
  30 C30           -5.6055    -7.0159    -1.4289 C.3     
  31 C31           -3.9191    -8.7866    -1.5469 C.2     
  32 N32           -4.8795    -9.6425    -1.9487 N.am    
  33 O33           -2.7649    -9.1607    -1.4696 O.2     
  34 C34           -4.5188   -10.9887    -2.4002 C.3     
  35 C35           -5.7098   -11.9288    -2.2038 C.3     
  36 C36           -4.1421   -10.9456    -3.8825 C.3     
  37 H37           -0.9204    -0.5597     0.0234 H       
  38 H38            3.3263     1.9419     0.0191 H       
  39 H39            3.1681    -2.2712    -1.4753 H       
  40 H40            3.5762    -2.9429     0.1386 H       
  41 H41            2.4575    -1.8010     2.7717 H       
  42 H42            1.7063    -3.2522     4.6168 H       
  43 H43            0.1354    -5.0934     4.1691 H       
  44 H44           -0.6870    -5.4913     1.8901 H       
  45 H45           -2.1169     3.8860     0.1283 H       
  46 H46           -1.0210     3.4977     1.4800 H       
  47 H47           -0.1668     4.0004    -1.4152 H       
  48 H48            0.0302     5.1451    -0.0627 H       
  49 H49           -0.5173    -5.0417    -1.9697 H       
  50 H50           -0.7686    -5.7997    -0.3789 H       
  51 H51           -2.5362    -4.1380     0.1337 H       
  52 H52           -2.2850    -3.3800    -1.4571 H       
  53 H53           -2.8468    -5.5766    -2.5392 H       
  54 H54           -2.2480    -7.0861    -0.7065 H       
  55 H55           -3.4828    -6.3482     0.3461 H       
  56 H56           -4.9546    -4.5149    -0.6026 H       
  57 H57           -4.5752    -3.8177    -2.1955 H       
  58 H58           -6.5432    -5.3052    -2.3476 H       
  59 H59           -5.1787    -5.9801    -3.2713 H       
  60 H60           -6.1987    -7.7696    -1.9469 H       
  61 H61           -6.0571    -6.7936    -0.4621 H       
  62 H62           -5.8096    -9.3672    -1.9389 H       
  63 H63           -3.6702   -11.3513    -1.8200 H       
  64 H64           -6.5584   -11.5662    -2.7839 H       
  65 H65           -5.4414   -12.9304    -2.5397 H       
  66 H66           -5.9782   -11.9595    -1.1478 H       
  67 H67           -4.9907   -10.5830    -4.4626 H       
  68 H68           -3.2936   -10.2759    -4.0224 H       
  69 H69           -3.8737   -11.9472    -4.2184 H       
@<TRIPOS>BOND
   1    1    2 ar
   2    1    6 ar
   3    1   19 1
   4    2    3 ar
   5    2   37 1
   6    3    4 ar
   7    3    8 1
   8    4    5 ar
   9    4    7 1
  10    5    6 ar
  11    5   38 1
  12    6   22 1
  13    7    9 1
  14    8    9 1
  15    8   11 1
  16    8   12 1
  17    9   39 1
  18    9   40 1
  19   10   11 ar
  20   10   13 1
  21   10   18 ar
  22   11   15 ar
  23   12   13 am
  24   12   14 2
  25   13   23 1
  26   15   16 ar
  27   15   41 1
  28   16   17 ar
  29   16   42 1
  30   17   18 ar
  31   17   43 1
  32   18   44 1
  33   19   20 1
  34   20   21 1
  35   20   45 1
  36   20   46 1
  37   21   22 1
  38   21   47 1
  39   21   48 1
  40   23   24 1
  41   23   49 1
  42   23   50 1
  43   24   25 1
  44   24   51 1
  45   24   52 1
  46   25   26 1
  47   25   28 1
  48   25   53 1
  49   26   27 1
  50   26   54 1
  51   26   55 1
  52   27   31 am
  53   27   30 1
  54   28   29 1
  55   28   56 1
  56   28   57 1
  57   29   30 1
  58   29   58 1
  59   29   59 1
  60   30   60 1
  61   30   61 1
  62   31   32 am
  63   31   33 2
  64   32   34 1
  65   32   62 1
  66   34   35 1
  67   34   36 1
  68   34   63 1
  69   35   64 1
  70   35   65 1
  71   35   66 1
  72   36   67 1
  73   36   68 1
  74   36   69 1

#	End of record

