#	Name: ASD01913583
#	Creating user name:	WinNT
#	Creation time:	15. 06. 2019 20:01

#	Modifying user name:	WinNT
#	Modification time:	15. 06. 2019 20:01

#	Program:	/corina/corina34_cracker 3.40 0067  02.08.2006

@<TRIPOS>MOLECULE
ASD01913583
  33   35    0    0    0
SMALL
NO_CHARGES


@<TRIPOS>ATOM
   1 C1            -2.9828     0.0702    -1.3176 C.ar    
   2 C2            -2.3933    -0.1638    -0.0794 C.ar    
   3 C3            -3.1041     0.1826     1.0651 C.ar    
   4 N4            -4.3067     0.7183     0.9364 N.ar    
   5 C5            -4.8313     0.9244    -0.2549 C.ar    
   6 N6            -4.1897     0.6100    -1.3622 N.ar    
   7 C7            -1.0661    -2.0680     0.1060 C.ar    
   8 C8             0.1632    -2.6891     0.3081 C.ar    
   9 C9             0.2167    -4.0680     0.4072 C.ar    
  10 N10           -0.8751    -4.7965     0.3129 N.ar    
  11 C11           -2.0688    -4.2465     0.1201 C.ar    
  12 C12           -2.2033    -2.8665     0.0108 C.ar    
  13 C13           -3.2677    -5.1109     0.0207 C.2     
  14 N14           -3.1444    -6.4489     0.1258 N.am    
  15 O15           -1.1550    -0.7170     0.0097 O.3     
  16 O16           -4.3624    -4.6136    -0.1555 O.2     
  17 C17           -4.2735    -7.2630     0.0322 C.ar    
  18 C18           -4.1386    -8.6443     0.1417 C.ar    
  19 C19           -5.2682    -9.4410     0.0469 C.ar    
  20 C20           -6.5567    -7.4467    -0.2485 C.ar    
  21 N21           -5.4631    -6.7145    -0.1544 N.ar    
  22 F22           -2.9229    -9.2002     0.3373 F       
  23 C23           -6.4977    -8.8254    -0.1549 C.ar    
  24 F24           -7.6238    -9.5653    -0.2534 F       
  25 H25           -2.4608    -0.1809    -2.2291 H       
  26 H26           -2.6804     0.0161     2.0445 H       
  27 H27           -5.8156     1.3633    -0.3257 H       
  28 H28            1.0656    -2.1008     0.3864 H       
  29 H29            1.1685    -4.5536     0.5641 H       
  30 H30           -3.1746    -2.4210    -0.1456 H       
  31 H31           -2.2706    -6.8459     0.2665 H       
  32 H32           -5.1949   -10.5155     0.1276 H       
  33 H33           -7.5104    -6.9632    -0.4005 H       
@<TRIPOS>BOND
   1    1    2 ar
   2    1    6 ar
   3    1   25 1
   4    2    3 ar
   5    2   15 1
   6    3    4 ar
   7    3   26 1
   8    4    5 ar
   9    5    6 ar
  10    5   27 1
  11    7    8 ar
  12    7   12 ar
  13    7   15 1
  14    8    9 ar
  15    8   28 1
  16    9   10 ar
  17    9   29 1
  18   10   11 ar
  19   11   12 ar
  20   11   13 1
  21   12   30 1
  22   13   14 am
  23   13   16 2
  24   14   17 1
  25   14   31 1
  26   17   18 ar
  27   17   21 ar
  28   18   19 ar
  29   18   22 1
  30   19   23 ar
  31   19   32 1
  32   20   21 ar
  33   20   23 ar
  34   20   33 1
  35   23   24 1

#	End of record

