#	Name: ASD01885793
#	Creating user name:	WinNT
#	Creation time:	15. 06. 2019 19:50

#	Modifying user name:	WinNT
#	Modification time:	15. 06. 2019 19:50

#	Program:	/corina/corina34_cracker 3.40 0067  02.08.2006

@<TRIPOS>MOLECULE
ASD01885793
  62   64    0    0    0
SMALL
NO_CHARGES


@<TRIPOS>ATOM
   1 C1             0.3765     1.1855    -0.3917 C.ar    
   2 C2            -0.9057     1.7910    -0.4168 C.ar    
   3 C3            -2.0543     0.9670    -0.5268 C.ar    
   4 C4            -1.8639    -0.4058    -0.6053 C.ar    
   5 C5            -0.5645    -0.9245    -0.5737 C.ar    
   6 N6             0.4919    -0.1404    -0.4713 N.ar    
   7 C7             1.3715     3.3560    -0.2084 C.ar    
   8 C8             0.1093     3.9457    -0.2273 C.ar    
   9 C9            -1.0163     3.1847    -0.3326 C.ar    
  10 C10           -3.4141     1.5523    -0.5567 C.ar    
  11 C11           -0.3698    -2.3921    -0.6580 C.2     
  12 C12            2.5954     4.2274    -0.0909 C.3     
  13 N13            2.9281     4.4157     1.3275 N.3     
  14 C14            1.5164     2.0054    -0.2878 C.ar    
  15 N15            0.8744    -2.9095    -0.6296 N.am    
  16 O16           -1.3318    -3.1281    -0.7527 O.2     
  17 C17            4.2416     5.0569     1.4796 C.3     
  18 C18            4.5152     5.3071     2.9646 C.3     
  19 N19            4.4685     4.0302     3.6905 N.3     
  20 C20            3.1549     3.3890     3.5383 C.3     
  21 C21            2.8813     3.1388     2.0534 C.3     
  22 C22            5.8995     5.9376     3.1294 C.3     
  23 F23            5.9903     7.0797     2.3266 F       
  24 F24            6.0939     6.2922     4.4687 F       
  25 F25            6.8800     5.0172     2.7436 F       
  26 C26            4.8012     4.2185     5.1089 C.3     
  27 C27           -4.3157     1.1775    -1.5531 C.ar    
  28 C28           -5.5812     1.7252    -1.5763 C.ar    
  29 C29           -5.9578     2.6466    -0.6119 C.ar    
  30 C30           -5.0656     3.0225     0.3798 C.ar    
  31 C31           -3.7998     2.4762     0.4150 C.ar    
  32 F32           -7.1986     3.1803    -0.6388 F       
  33 H33           -2.7124    -1.0688    -0.6897 H       
  34 H34            0.0219     5.0199    -0.1576 H       
  35 H35           -1.9889     3.6540    -0.3513 H       
  36 H36            3.4322     3.7491    -0.6000 H       
  37 H37            2.3970     5.1962    -0.5493 H       
  38 H38            2.5019     1.5640    -0.2709 H       
  39 H39            1.6424    -2.3219    -0.5540 H       
  40 H40            1.0017    -3.8695    -0.6848 H       
  41 H41            5.0141     4.4046     1.0724 H       
  42 H42            4.2472     6.0062     0.9439 H       
  43 H43            3.7584     5.9815     3.3652 H       
  44 H44            3.1494     2.4397     4.0741 H       
  45 H45            2.3825     4.0413     3.9456 H       
  46 H46            1.8951     2.6897     1.9360 H       
  47 H47            3.6384     2.4647     1.6527 H       
  48 H48            4.1821     5.0134     5.5249 H       
  49 H49            4.6157     3.2917     5.6518 H       
  50 H50            5.8526     4.4902     5.2025 H       
  51 H51           -4.0230     0.4598    -2.3053 H       
  52 H52           -6.2798     1.4359    -2.3475 H       
  53 H53           -5.3635     3.7414     1.1287 H       
  54 H54           -3.1052     2.7698     1.1882 H       
  55 C55           12.8819    13.9868    11.5570 C.3     
  56 C56           12.9026    12.4570    11.5486 C.3     
  57 H57           13.9045    14.3641    11.5492 H       
  58 H58           12.3547    14.3479    10.6739 H       
  59 H59           12.3717    14.3383    12.4538 H       
  60 H60           13.4298    12.0959    12.4316 H       
  61 H61           11.8800    12.0797    11.5563 H       
  62 H62           13.4128    12.1055    10.6518 H       
@<TRIPOS>BOND
   1    1    6 ar
   2    1   14 ar
   3    1    2 ar
   4    2    3 ar
   5    2    9 ar
   6    3   10 1
   7    3    4 ar
   8    4    5 ar
   9    4   33 1
  10    5   11 1
  11    5    6 ar
  12    7   12 1
  13    7    8 ar
  14    7   14 ar
  15    8    9 ar
  16    8   34 1
  17    9   35 1
  18   10   27 ar
  19   10   31 ar
  20   11   15 am
  21   11   16 2
  22   12   13 1
  23   12   36 1
  24   12   37 1
  25   13   17 1
  26   13   21 1
  27   14   38 1
  28   15   39 1
  29   15   40 1
  30   17   18 1
  31   17   41 1
  32   17   42 1
  33   18   22 1
  34   18   19 1
  35   18   43 1
  36   19   20 1
  37   19   26 1
  38   20   21 1
  39   20   44 1
  40   20   45 1
  41   21   46 1
  42   21   47 1
  43   22   23 1
  44   22   24 1
  45   22   25 1
  46   26   48 1
  47   26   49 1
  48   26   50 1
  49   27   28 ar
  50   27   51 1
  51   28   29 ar
  52   28   52 1
  53   29   30 ar
  54   29   32 1
  55   30   31 ar
  56   30   53 1
  57   31   54 1
  58   55   56 1
  59   55   57 1
  60   55   58 1
  61   55   59 1
  62   56   60 1
  63   56   61 1
  64   56   62 1

#	End of record

