#	Name: ASD03430499
#	Creating user name:	WinNT
#	Creation time:	15. 06. 2019 20:41

#	Modifying user name:	WinNT
#	Modification time:	15. 06. 2019 20:41

#	Program:	/corina/corina34_cracker 3.40 0067  02.08.2006

@<TRIPOS>MOLECULE
ASD03430499
  50   55    0    0    0
SMALL
NO_CHARGES


@<TRIPOS>ATOM
   1 C1            -0.0184     1.5028     0.0103 C.2     
   2 C2             0.0021    -0.0041     0.0020 C.3     
   3 N3             1.0923     2.1643     0.0033 N.2     
   4 N4            -1.2187     2.1742     0.0196 N.pl3   
   5 O5             1.0758     3.3822     0.0100 O.3     
   6 C6             2.2624     4.0073     0.0020 C.2     
   7 O7             3.2878     3.3610    -0.0113 O.2     
   8 C8             2.3208     5.5131     0.0095 C.3     
   9 C9             3.7043     6.1665    -0.0002 C.3     
  10 C10            2.8305     6.2067    -1.2555 C.3     
  11 O11            6.2547     2.8719     2.0972 O.3     
  12 C12            7.6750     2.8119     2.3263 C.3     
  13 O13            7.8837     1.4821     2.8371 O.3     
  14 C14            6.8710     0.7279     2.3167 C.ar    
  15 C15            5.8690     1.5829     1.8632 C.ar    
  16 C16            6.7216    -0.6415     2.1898 C.ar    
  17 C17            5.5730    -1.1747     1.6126 C.ar    
  18 C18            4.5747    -0.3111     1.1719 C.ar    
  19 C19            4.7236     1.0550     1.2915 C.ar    
  20 O20            5.2387    -2.4763     1.3790 O.3     
  21 C21            3.4669    -1.1758     0.6324 C.3     
  22 C22            3.8167    -2.5709     1.1684 C.3     
  23 N23            1.3897    -0.4735    -0.0138 N.am    
  24 C24            2.1131    -0.7212     1.0966 C.2     
  25 C25            3.4018    -1.1522    -0.8660 C.ar    
  26 C26            4.3036    -1.4572    -1.8628 C.ar    
  27 C27            3.9357    -1.3315    -3.1919 C.ar    
  28 C28            2.6626    -0.8996    -3.5155 C.ar    
  29 C29            1.7568    -0.5940    -2.5210 C.ar    
  30 C30            2.1172    -0.7175    -1.1812 C.ar    
  31 O31            1.7429    -0.6004     2.2453 O.2     
  32 Cl32           5.9010    -1.9984    -1.4520 Cl      
  33 H33           -0.4983    -0.3791     0.8948 H       
  34 H34           -0.5153    -0.3696    -0.8850 H       
  35 H35           -2.0520     1.6778     0.0209 H       
  36 H36           -1.2318     3.1441     0.0250 H       
  37 H37            1.5329     6.0114     0.5743 H       
  38 H38            3.8264     7.0947     0.5579 H       
  39 H39            4.5722     5.5071    -0.0120 H       
  40 H40            3.1235     5.5738    -2.0931 H       
  41 H41            2.3777     7.1614    -1.5232 H       
  42 H42            8.2198     2.9535     1.3929 H       
  43 H43            7.9758     3.5567     3.0631 H       
  44 H44            7.5015    -1.3010     2.5408 H       
  45 H45            3.9448     1.7146     0.9383 H       
  46 H46            3.5849    -3.3385     0.4301 H       
  47 H47            3.2984    -2.7661     2.1072 H       
  48 H48            4.6414    -1.5705    -3.9738 H       
  49 H49            2.3759    -0.8012    -4.5521 H       
  50 H50            0.7645    -0.2570    -2.7822 H       
@<TRIPOS>BOND
   1    1    2 1
   2    1    3 2
   3    1    4 1
   4    2   23 1
   5    2   33 1
   6    2   34 1
   7    3    5 1
   8    4   35 1
   9    4   36 1
  10    5    6 1
  11    6    7 2
  12    6    8 1
  13    8    9 1
  14    8   10 1
  15    8   37 1
  16    9   10 1
  17    9   38 1
  18    9   39 1
  19   10   40 1
  20   10   41 1
  21   11   12 1
  22   11   15 1
  23   12   13 1
  24   12   42 1
  25   12   43 1
  26   13   14 1
  27   14   15 ar
  28   14   16 ar
  29   15   19 ar
  30   16   17 ar
  31   16   44 1
  32   17   18 ar
  33   17   20 1
  34   18   19 ar
  35   18   21 1
  36   19   45 1
  37   20   22 1
  38   21   22 1
  39   21   24 1
  40   21   25 1
  41   22   46 1
  42   22   47 1
  43   23   24 am
  44   23   30 1
  45   24   31 2
  46   25   26 ar
  47   25   30 ar
  48   26   27 ar
  49   26   32 1
  50   27   28 ar
  51   27   48 1
  52   28   29 ar
  53   28   49 1
  54   29   30 ar
  55   29   50 1

#	End of record

