#	Name: ASD01880157
#	Creating user name:	WinNT
#	Creation time:	15. 06. 2019 19:40

#	Modifying user name:	WinNT
#	Modification time:	15. 06. 2019 19:40

#	Program:	/corina/corina34_cracker 3.40 0067  02.08.2006

@<TRIPOS>MOLECULE
ASD01880157
  60   63    0    0    0
SMALL
NO_CHARGES


@<TRIPOS>ATOM
   1 C1            -0.0168     1.3865     0.0097 C.ar    
   2 C2             0.0021    -0.0041     0.0020 C.ar    
   3 C3            -1.1909    -0.7166     0.0095 C.ar    
   4 C4            -2.3915    -0.0587     0.0240 C.ar    
   5 C5            -2.4244     1.3377     0.0318 C.ar    
   6 C6            -1.2167     2.0570     0.0304 C.ar    
   7 C7            -3.8024    -0.5973     0.0340 C.3     
   8 C8            -4.7294     0.6259     0.0491 C.3     
   9 C9            -3.8110     1.8236     0.0471 C.2     
  10 C10           -1.2374     3.5638     0.0388 C.3     
  11 C11            1.2777     2.1580     0.0014 C.3     
  12 O12           -4.1575     2.9859     0.0569 O.2     
  13 C13            2.5324    -2.6497    -0.0372 C.ar    
  14 C14            1.1318    -2.0935    -0.0204 C.3     
  15 O15            1.1864    -0.6656    -0.0132 O.3     
  16 C16            3.1865    -2.9111     1.1521 C.ar    
  17 C17            4.4712    -3.4212     1.1367 C.ar    
  18 C18            5.1016    -3.6703    -0.0681 C.ar    
  19 C19            4.4471    -3.4096    -1.2575 C.ar    
  20 C20            3.1607    -2.9036    -1.2420 C.ar    
  21 C21            6.5025    -4.2254    -0.0849 C.3     
  22 C22           -5.6150     0.6351    -1.1985 C.3     
  23 S23            6.4345    -6.0381    -0.0927 S.3     
  24 C24            8.1352    -6.4985    -0.1122 C.ar    
  25 C25            8.5134    -7.8417    -0.1223 C.ar    
  26 C26            9.8548    -8.1596    -0.1374 C.ar    
  27 N27           10.7749    -7.2129    -0.1418 N.ar    
  28 C28           10.4579    -5.9314    -0.1326 C.ar    
  29 C29            9.1392    -5.5294    -0.1236 C.ar    
  30 C30           -6.6154     1.7890    -1.1054 C.3     
  31 C31           -7.5010     1.7982    -2.3530 C.3     
  32 H32           -1.1709    -1.7964     0.0035 H       
  33 H33           -3.9824    -1.1926    -0.8611 H       
  34 H34           -3.9661    -1.2022     0.9259 H       
  35 H35           -5.3440     0.6228     0.9493 H       
  36 H36           -1.2379     3.9215     1.0685 H       
  37 H37           -0.3548     3.9422    -0.4769 H       
  38 H38           -2.1346     3.9177    -0.4691 H       
  39 H39            1.5800     2.3495    -1.0281 H       
  40 H40            1.1392     3.1057     0.5217 H       
  41 H41            2.0503     1.5767     0.5048 H       
  42 H42            0.5957    -2.4322    -0.9069 H       
  43 H43            0.6133    -2.4418     0.8729 H       
  44 H44            2.6941    -2.7166     2.0934 H       
  45 H45            4.9826    -3.6249     2.0659 H       
  46 H46            4.9397    -3.6039    -2.1987 H       
  47 H47            2.6494    -2.7000    -2.1712 H       
  48 H48            7.0205    -3.8774    -0.9786 H       
  49 H49            7.0386    -3.8857     0.8012 H       
  50 H50           -4.9933     0.7639    -2.0845 H       
  51 H51           -6.1550    -0.3092    -1.2678 H       
  52 H52            7.7658    -8.6211    -0.1180 H       
  53 H53           10.1568    -9.1965    -0.1453 H       
  54 H54           11.2418    -5.1884    -0.1367 H       
  55 H55            8.8869    -4.4793    -0.1161 H       
  56 H56           -7.2371     1.6602    -0.2194 H       
  57 H57           -6.0754     2.7333    -1.0362 H       
  58 H58           -8.2137     2.6202    -2.2866 H       
  59 H59           -6.8793     1.9270    -3.2389 H       
  60 H60           -8.0410     0.8539    -2.4222 H       
@<TRIPOS>BOND
   1    1    2 ar
   2    1   11 1
   3    1    6 ar
   4    2    3 ar
   5    2   15 1
   6    3    4 ar
   7    3   32 1
   8    4    5 ar
   9    4    7 1
  10    5    6 ar
  11    5    9 1
  12    6   10 1
  13    7    8 1
  14    7   33 1
  15    7   34 1
  16    8    9 1
  17    8   22 1
  18    8   35 1
  19    9   12 2
  20   10   36 1
  21   10   37 1
  22   10   38 1
  23   11   39 1
  24   11   40 1
  25   11   41 1
  26   13   14 1
  27   13   16 ar
  28   13   20 ar
  29   14   15 1
  30   14   42 1
  31   14   43 1
  32   16   17 ar
  33   16   44 1
  34   17   18 ar
  35   17   45 1
  36   18   19 ar
  37   18   21 1
  38   19   20 ar
  39   19   46 1
  40   20   47 1
  41   21   23 1
  42   21   48 1
  43   21   49 1
  44   22   30 1
  45   22   50 1
  46   22   51 1
  47   23   24 1
  48   24   25 ar
  49   24   29 ar
  50   25   26 ar
  51   25   52 1
  52   26   27 ar
  53   26   53 1
  54   27   28 ar
  55   28   29 ar
  56   28   54 1
  57   29   55 1
  58   30   31 1
  59   30   56 1
  60   30   57 1
  61   31   58 1
  62   31   59 1
  63   31   60 1

#	End of record

