#	Name: ASD07300144
#	Creating user name:	WinNT
#	Creation time:	15. 06. 2019 21:09

#	Modifying user name:	WinNT
#	Modification time:	15. 06. 2019 21:09

#	Program:	/corina/corina34_cracker 3.40 0067  02.08.2006

@<TRIPOS>MOLECULE
ASD07300144
  64   68    0    0    0
SMALL
NO_CHARGES


@<TRIPOS>ATOM
   1 C1            -1.2419     0.8510    -0.1120 C.ar    
   2 C2            -0.8062    -0.3119     0.5307 C.ar    
   3 C3            -0.4957    -1.4315    -0.2267 C.ar    
   4 C4            -0.6318    -1.3497    -1.6049 C.ar    
   5 C5            -1.0678    -0.1678    -2.1735 C.ar    
   6 N6            -1.3565     0.8824    -1.4294 N.ar    
   7 C7            -1.1865     1.2348     2.0751 C.2     
   8 N8            -1.4693     1.7941     0.8839 N.am    
   9 N9            -0.7886    -0.0392     1.8952 N.am    
  10 O10           -1.2809     1.7939     3.1516 O.2     
  11 C11           -1.9175     3.1078     0.6813 C.ar    
  12 C12           -2.1052     3.9526     1.7669 C.ar    
  13 C13           -2.5465     5.2456     1.5670 C.ar    
  14 C14           -2.8023     5.7006     0.2815 C.ar    
  15 C15           -2.6153     4.8565    -0.8037 C.ar    
  16 C16           -2.1682     3.5653    -0.6053 C.ar    
  17 O17           -3.2368     6.9738     0.0851 O.3     
  18 C18           -2.3325     7.9758     0.1826 C.2     
  19 N19           -2.6320     9.3045     0.1112 N.pl3   
  20 C20           -1.4212    10.0130     0.2571 C.2     
  21 C21           -0.4244     9.0362     0.4138 C.2     
  22 N22           -1.0558     7.8084     0.3631 N.2     
  23 C23           -0.9668    11.2813     0.2879 C.2     
  24 C24            0.8250     9.5456     0.5696 C.2     
  25 S25            0.7725    11.2991     0.5206 S.3     
  26 C26           -3.9624     9.8868    -0.0818 C.3     
  27 O27           -4.5747    10.1079     1.1902 O.3     
  28 C28           -5.8834    10.6768     1.1144 C.3     
  29 C29           -6.4389    10.8684     2.5270 C.3     
  30 Si30          -8.1450    11.6100     2.4281 Si      
  31 C31           -9.2637    10.4689     1.4704 C.3     
  32 C32           -8.8214    11.8433     4.1482 C.3     
  33 C33           -8.0561    13.2596     1.5668 C.3     
  34 C34           -0.3964    -0.9739     2.9529 C.3     
  35 C35            1.1060    -0.8482     3.2133 C.3     
  36 H36           -0.1566    -2.3425     0.2439 H       
  37 H37           -0.3989    -2.2010    -2.2274 H       
  38 H38           -1.1738    -0.1028    -3.2463 H       
  39 H39           -1.9064     3.5984     2.7676 H       
  40 H40           -2.6928     5.9028     2.4115 H       
  41 H41           -2.8149     5.2110    -1.8041 H       
  42 H42           -2.0181     2.9098    -1.4504 H       
  43 H43           -1.5847    12.1610     0.1839 H       
  44 H44            1.7206     8.9571     0.7037 H       
  45 H45           -3.8705    10.8356    -0.6106 H       
  46 H46           -4.5770     9.2028    -0.6670 H       
  47 H47           -5.8313    11.6419     0.6104 H       
  48 H48           -6.5379    10.0091     0.5540 H       
  49 H49           -6.4909     9.9032     3.0310 H       
  50 H50           -5.7844    11.5360     3.0874 H       
  51 H51           -9.3157     9.5038     1.9743 H       
  52 H52          -10.2619    10.9028     1.4125 H       
  53 H53           -8.8679    10.3324     0.4640 H       
  54 H54           -8.1670    12.5110     4.7085 H       
  55 H55           -9.8197    12.2773     4.0903 H       
  56 H56           -8.8735    10.8782     4.6521 H       
  57 H57           -7.6603    13.1231     0.5604 H       
  58 H58           -9.0543    13.6935     1.5089 H       
  59 H59           -7.4016    13.9272     2.1271 H       
  60 H60           -0.9441    -0.7401     3.8659 H       
  61 H61           -0.6272    -1.9926     2.6415 H       
  62 H62            1.3369     0.1705     3.5247 H       
  63 H63            1.3978    -1.5437     4.0002 H       
  64 H64            1.6538    -1.0820     2.3004 H       
@<TRIPOS>BOND
   1    1    2 ar
   2    1    6 ar
   3    1    8 1
   4    2    3 ar
   5    2    9 1
   6    3    4 ar
   7    3   36 1
   8    4    5 ar
   9    4   37 1
  10    5    6 ar
  11    5   38 1
  12    7    8 am
  13    7    9 am
  14    7   10 2
  15    8   11 1
  16    9   34 1
  17   11   12 ar
  18   11   16 ar
  19   12   13 ar
  20   12   39 1
  21   13   14 ar
  22   13   40 1
  23   14   15 ar
  24   14   17 1
  25   15   16 ar
  26   15   41 1
  27   16   42 1
  28   17   18 1
  29   18   19 1
  30   18   22 2
  31   19   20 1
  32   19   26 1
  33   20   21 1
  34   20   23 2
  35   21   22 1
  36   21   24 2
  37   23   25 1
  38   23   43 1
  39   24   25 1
  40   24   44 1
  41   26   27 1
  42   26   45 1
  43   26   46 1
  44   27   28 1
  45   28   29 1
  46   28   47 1
  47   28   48 1
  48   29   30 1
  49   29   49 1
  50   29   50 1
  51   30   31 1
  52   30   32 1
  53   30   33 1
  54   31   51 1
  55   31   52 1
  56   31   53 1
  57   32   54 1
  58   32   55 1
  59   32   56 1
  60   33   57 1
  61   33   58 1
  62   33   59 1
  63   34   35 1
  64   34   60 1
  65   34   61 1
  66   35   62 1
  67   35   63 1
  68   35   64 1

#	End of record

