#	Name: ASD05740156
#	Creating user name:	WinNT
#	Creation time:	15. 06. 2019 21:02

#	Modifying user name:	WinNT
#	Modification time:	15. 06. 2019 21:02

#	Program:	/corina/corina34_cracker 3.40 0067  02.08.2006

@<TRIPOS>MOLECULE
ASD05740156
  60   64    0    0    0
SMALL
NO_CHARGES


@<TRIPOS>ATOM
   1 C1             1.4382     0.3818     1.0135 C.3     
   2 O2             0.7532    -0.6427     0.2901 O.3     
   3 C3            -0.2931    -1.2456     0.9152 C.ar    
   4 C4            -0.7231    -0.7825     2.1500 C.ar    
   5 C5            -1.7853    -1.3945     2.7857 C.ar    
   6 C6            -2.4233    -2.4736     2.1883 C.ar    
   7 C7            -1.9924    -2.9364     0.9520 C.ar    
   8 C8            -0.9334    -2.3199     0.3152 C.ar    
   9 N9            -3.5001    -3.0951     2.8325 N.pl3   
  10 C10           -4.3767    -2.3450     3.5920 C.ar    
  11 N11           -4.2397    -1.0236     3.6075 N.ar    
  12 N12           -5.3257    -2.9701     4.2732 N.ar    
  13 C13           -6.1853    -2.2814     5.0128 C.ar    
  14 C14           -6.0668    -0.8747     5.0576 C.ar    
  15 C15           -5.0513    -0.2598     4.3166 C.ar    
  16 N16           -7.1780    -2.8996     5.7283 N.am    
  17 C17           -8.0415    -2.1857     6.4722 C.2     
  18 C18           -7.9681    -0.7804     6.5521 C.2     
  19 C19           -7.0069    -0.1064     5.8679 C.2     
  20 C20           -7.3003    -4.3588     5.6813 C.3     
  21 O21           -8.9117    -2.7700     7.0942 O.2     
  22 C22            2.8662     0.5188     0.4781 C.3     
  23 C23           -6.5856    -6.3275     7.0516 C.ar    
  24 C24           -6.5353    -4.9642     6.8300 C.ar    
  25 C25           -5.8838    -6.8829     8.1053 C.ar    
  26 C26           -5.1319    -6.0748     8.9372 C.ar    
  27 C27           -5.0813    -4.7111     8.7153 C.ar    
  28 C28           -5.7829    -4.1559     7.6618 C.ar    
  29 C29           -7.4103    -7.2078     6.1483 C.3     
  30 F30           -7.3195    -8.5351     6.5809 F       
  31 F31           -8.7464    -6.7948     6.1877 F       
  32 F32           -6.9307    -7.1106     4.8377 F       
  33 C33            3.5749     1.6577     1.2147 C.3     
  34 N34            2.8345     2.9095     1.0112 N.3     
  35 C35            1.4755     2.8177     1.5599 C.3     
  36 C36            0.7041     1.7134     0.8336 C.3     
  37 H37            1.4693     0.1219     2.0716 H       
  38 H38           -0.2269     0.0568     2.6145 H       
  39 H39           -2.1196    -1.0342     3.7475 H       
  40 H40           -2.4878    -3.7758     0.4869 H       
  41 H41           -0.5982    -2.6797    -0.6464 H       
  42 H42           -3.6305    -4.0523     2.7453 H       
  43 H43           -4.9313     0.8134     4.3278 H       
  44 H44           -8.6776    -0.2377     7.1592 H       
  45 H45           -6.9408     0.9703     5.9214 H       
  46 H46           -8.3512    -4.6380     5.7574 H       
  47 H47           -6.8937    -4.7274     4.7396 H       
  48 H48            3.4074    -0.4131     0.6422 H       
  49 H49            2.8352     0.7392    -0.5889 H       
  50 H50           -5.9233    -7.9482     8.2787 H       
  51 H51           -4.5842    -6.5086     9.7608 H       
  52 H52           -4.4938    -4.0797     9.3653 H       
  53 H53           -5.7436    -3.0906     7.4887 H       
  54 H54            3.6178     1.4302     2.2798 H       
  55 H55            4.5873     1.7673     0.8258 H       
  56 H56            3.3324     3.6926     1.4074 H       
  57 H57            1.5282     2.5848     2.6234 H       
  58 H58            0.9631     3.7698     1.4217 H       
  59 H59            0.6391     1.9526    -0.2279 H       
  60 H60           -0.2994     1.6351     1.2517 H       
@<TRIPOS>BOND
   1    1    2 1
   2    1   22 1
   3    1   36 1
   4    1   37 1
   5    2    3 1
   6    3    4 ar
   7    3    8 ar
   8    4    5 ar
   9    4   38 1
  10    5    6 ar
  11    5   39 1
  12    6    7 ar
  13    6    9 1
  14    7    8 ar
  15    7   40 1
  16    8   41 1
  17    9   10 1
  18    9   42 1
  19   10   11 ar
  20   10   12 ar
  21   11   15 ar
  22   12   13 ar
  23   13   14 ar
  24   13   16 1
  25   14   15 ar
  26   14   19 1
  27   15   43 1
  28   16   17 am
  29   16   20 1
  30   17   18 1
  31   17   21 2
  32   18   19 2
  33   18   44 1
  34   19   45 1
  35   20   24 1
  36   20   46 1
  37   20   47 1
  38   22   33 1
  39   22   48 1
  40   22   49 1
  41   23   24 ar
  42   23   25 ar
  43   23   29 1
  44   24   28 ar
  45   25   26 ar
  46   25   50 1
  47   26   27 ar
  48   26   51 1
  49   27   28 ar
  50   27   52 1
  51   28   53 1
  52   29   30 1
  53   29   31 1
  54   29   32 1
  55   33   34 1
  56   33   54 1
  57   33   55 1
  58   34   35 1
  59   34   56 1
  60   35   36 1
  61   35   57 1
  62   35   58 1
  63   36   59 1
  64   36   60 1

#	End of record

