#	Name: ASD01028118
#	Creating user name:	WinNT
#	Creation time:	15. 06. 2019 18:56

#	Modifying user name:	WinNT
#	Modification time:	15. 06. 2019 18:56

#	Program:	/corina/corina34_cracker 3.40 0067  02.08.2006

@<TRIPOS>MOLECULE
ASD01028118
  67   70    0    0    0
SMALL
NO_CHARGES


@<TRIPOS>ATOM
   1 C1             0.6824    -0.4564     4.1832 C.3     
   2 C2             1.0020    -0.9740     2.7793 C.3     
   3 C3            -0.2916    -1.0842     1.9697 C.3     
   4 N4            -4.9947    -0.8149     0.9975 N.pl3   
   5 C5            -6.2978    -0.4194     1.3232 C.ar    
   6 C6            -6.5653     0.9080     1.6293 C.ar    
   7 C7            -5.4523     1.9238     1.6110 C.3     
   8 C8            -7.3275    -1.3552     1.3350 C.ar    
   9 C9            -8.6195    -0.9567     1.6590 C.ar    
  10 C10           -8.8758     0.3709     1.9689 C.ar    
  11 C11           -7.8515     1.2987     1.9504 C.ar    
  12 O12            0.0068    -1.5676     0.6585 O.3     
  13 C13           -1.0402    -1.7241    -0.1949 C.ar    
  14 C14           -2.3042    -1.4206     0.2242 C.ar    
  15 C15           -3.3832    -1.5814    -0.6538 C.ar    
  16 C16           -4.7116    -1.2812    -0.2702 C.ar    
  17 N17           -5.6781    -1.4604    -1.1616 N.ar    
  18 O18           -7.3360    -2.6956     1.0729 O.3     
  19 C19           -8.5658    -3.1891     1.6364 C.3     
  20 O20           -9.4404    -2.0459     1.6004 O.3     
  21 C21           -0.8096    -2.1898    -1.4972 C.ar    
  22 C22           -1.8533    -2.3560    -2.3799 C.ar    
  23 C23           -3.1585    -2.0569    -1.9695 C.ar    
  24 N24           -4.2097    -2.2013    -2.7911 N.ar    
  25 C25           -5.4205    -1.9072    -2.3802 C.ar    
  26 O26            0.4574    -2.4797    -1.8925 O.3     
  27 C27            0.6277    -2.9500    -3.2311 C.3     
  28 N28           -5.1871     2.3347     0.2258 N.3     
  29 C29           -6.3332     3.0617    -0.3363 C.3     
  30 C30           -3.9606     3.1387     0.1408 C.3     
  31 C31           -3.7591     3.6108    -1.3005 C.3     
  32 C32           -4.0803     4.3352     1.0492 C.2     
  33 O33           -2.9757     4.9686     1.4739 O.3     
  34 O34           -5.1706     4.7244     1.3951 O.2     
  35 N35            1.9244    -0.3507     4.9606 N.3     
  36 C36           -3.1667     6.1133     2.3466 C.3     
  37 H37            0.2145     0.5254     4.1107 H       
  38 H38            0.0012    -1.1479     4.6791 H       
  39 H39            1.6832    -0.2826     2.2835 H       
  40 H40            1.4699    -1.9558     2.8519 H       
  41 H41           -0.9728    -1.7756     2.4656 H       
  42 H42           -0.7596    -0.1024     1.8972 H       
  43 H43           -4.2909    -0.7612     1.6629 H       
  44 H44           -5.7450     2.7941     2.1984 H       
  45 H45           -4.5514     1.4835     2.0382 H       
  46 H46           -9.8791     0.6811     2.2208 H       
  47 H47           -8.0558     2.3311     2.1928 H       
  48 H48           -2.4707    -1.0588     1.2280 H       
  49 H49           -8.9683    -3.9988     1.0277 H       
  50 H50           -8.4108    -3.5208     2.6630 H       
  51 H51           -1.6667    -2.7143    -3.3815 H       
  52 H52           -6.2438    -2.0351    -3.0674 H       
  53 H53            0.2684    -2.1948    -3.9301 H       
  54 H54            1.6843    -3.1434    -3.4166 H       
  55 H55            0.0604    -3.8707    -3.3677 H       
  56 H56           -6.6032     3.8832     0.3273 H       
  57 H57           -6.0667     3.4586    -1.3159 H       
  58 H58           -7.1799     2.3829    -0.4373 H       
  59 H59           -3.1075     2.5336     0.4476 H       
  60 H60           -2.8490     4.2073    -1.3636 H       
  61 H61           -3.6725     2.7454    -1.9575 H       
  62 H62           -4.6122     4.2159    -1.6073 H       
  63 H63            2.5976     0.2345     4.4888 H       
  64 H64            1.7399    -0.0106     5.8924 H       
  65 H65           -3.7575     6.8696     1.8299 H       
  66 H66           -3.6893     5.7984     3.2498 H       
  67 H67           -2.1965     6.5312     2.6153 H       
@<TRIPOS>BOND
   1    1    2 1
   2    1   35 1
   3    1   37 1
   4    1   38 1
   5    2    3 1
   6    2   39 1
   7    2   40 1
   8    3   12 1
   9    3   41 1
  10    3   42 1
  11    4    5 1
  12    4   16 1
  13    4   43 1
  14    5    6 ar
  15    5    8 ar
  16    6    7 1
  17    6   11 ar
  18    7   28 1
  19    7   44 1
  20    7   45 1
  21    8    9 ar
  22    8   18 1
  23    9   10 ar
  24    9   20 1
  25   10   11 ar
  26   10   46 1
  27   11   47 1
  28   12   13 1
  29   13   14 ar
  30   13   21 ar
  31   14   15 ar
  32   14   48 1
  33   15   16 ar
  34   15   23 ar
  35   16   17 ar
  36   17   25 ar
  37   18   19 1
  38   19   20 1
  39   19   49 1
  40   19   50 1
  41   21   22 ar
  42   21   26 1
  43   22   23 ar
  44   22   51 1
  45   23   24 ar
  46   24   25 ar
  47   25   52 1
  48   26   27 1
  49   27   53 1
  50   27   54 1
  51   27   55 1
  52   28   29 1
  53   28   30 1
  54   29   56 1
  55   29   57 1
  56   29   58 1
  57   30   31 1
  58   30   32 1
  59   30   59 1
  60   31   60 1
  61   31   61 1
  62   31   62 1
  63   32   33 1
  64   32   34 2
  65   33   36 1
  66   35   63 1
  67   35   64 1
  68   36   65 1
  69   36   66 1
  70   36   67 1

#	End of record

