#	Name: ASD03330468
#	Creating user name:	WinNT
#	Creation time:	15. 06. 2019 20:37

#	Modifying user name:	WinNT
#	Modification time:	15. 06. 2019 20:37

#	Program:	/corina/corina34_cracker 3.40 0067  02.08.2006

@<TRIPOS>MOLECULE
ASD03330468
  61   63    0    0    0
SMALL
NO_CHARGES


@<TRIPOS>ATOM
   1 C1            -0.5190     2.5728    -2.5138 C.3     
   2 N2            -0.5545     1.2115    -1.9612 N.3     
   3 C3             0.1984     0.2713    -2.8110 C.3     
   4 C4             1.5531     0.8728    -3.0828 C.2     
   5 N5             1.8535     2.1862    -2.8685 N.pl3   
   6 C6             0.8885     3.1623    -2.3550 C.3     
   7 C7             2.6741     0.2778    -3.5619 C.2     
   8 N8             3.6416     1.2197    -3.6336 N.2     
   9 C9             3.1553     2.3695    -3.2172 C.2     
  10 C10            3.8956     3.6405    -3.1421 C.2     
  11 C11            2.8129    -1.1408    -3.9363 C.2     
  12 O12            1.8648    -1.8944    -3.8256 O.2     
  13 C13            4.1283    -3.0131    -4.7737 C.3     
  14 N14            3.9904    -1.6029    -4.4015 N.am    
  15 C15           -1.9383     0.7566    -1.7707 C.3     
  16 C16            5.1164     3.6751    -3.6269 C.2     
  17 C17            4.4629    -3.8386    -3.5297 C.3     
  18 C18            3.2992    -3.7631    -2.5393 C.3     
  19 C19            4.6963    -5.2961    -3.9323 C.3     
  20 C20            5.7280    -3.2820    -2.8734 C.3     
  21 C21            5.2347    -3.1595    -5.7863 C.2     
  22 O22            6.0145    -2.2487    -5.9683 O.2     
  23 N23            5.3577    -4.3027    -6.4895 N.am    
  24 C24            6.4776    -4.4744    -7.4183 C.3     
  25 C25            5.9879     4.8970    -3.6091 C.3     
  26 C26            5.1392     6.1456    -3.3605 C.3     
  27 C27            4.2414     5.8897    -2.1437 C.3     
  28 C28            3.2096     4.8225    -2.5216 C.3     
  29 H29           -0.7814     2.5414    -3.5713 H       
  30 H30           -1.2360     3.1984    -1.9822 H       
  31 H31            0.3151    -0.6808    -2.2934 H       
  32 H32           -0.3321     0.1181    -3.7508 H       
  33 H33            0.9653     4.0894    -2.9230 H       
  34 H34            1.0885     3.3580    -1.3015 H       
  35 H35            3.1922    -3.3684    -5.2044 H       
  36 H36            4.7465    -1.0018    -4.4898 H       
  37 H37           -2.4765     0.8248    -2.7161 H       
  38 H38           -1.9366    -0.2779    -1.4273 H       
  39 H39           -2.4284     1.3854    -1.0274 H       
  40 H40            5.5161     2.7717    -4.0633 H       
  41 H41            2.3979    -4.1596    -3.0068 H       
  42 H42            3.5376    -4.3512    -1.6530 H       
  43 H43            3.1330    -2.7247    -2.2524 H       
  44 H44            5.4507    -5.3397    -4.7178 H       
  45 H45            5.0402    -5.8616    -3.0663 H       
  46 H46            3.7641    -5.7253    -4.2996 H       
  47 H47            5.5618    -2.2436    -2.5866 H       
  48 H48            5.9664    -3.8700    -1.9872 H       
  49 H49            6.5571    -3.3357    -3.5790 H       
  50 H50            4.7047    -5.0116    -6.3808 H       
  51 H51            6.4383    -3.6981    -8.1824 H       
  52 H52            7.4177    -4.3991    -6.8717 H       
  53 H53            6.4101    -5.4539    -7.8917 H       
  54 H54            6.7294     4.8004    -2.8161 H       
  55 H55            6.4974     4.9914    -4.5680 H       
  56 H56            5.7900     6.9974    -3.1628 H       
  57 H57            4.5213     6.3485    -4.2353 H       
  58 H58            4.8477     5.5388    -1.3086 H       
  59 H59            3.7291     6.8109    -1.8664 H       
  60 H60            2.4948     5.2450    -3.2278 H       
  61 H61            2.6805     4.4981    -1.6255 H       
@<TRIPOS>BOND
   1    1    2 1
   2    1    6 1
   3    1   29 1
   4    1   30 1
   5    2    3 1
   6    2   15 1
   7    3    4 1
   8    3   31 1
   9    3   32 1
  10    4    5 1
  11    4    7 2
  12    5    6 1
  13    5    9 1
  14    6   33 1
  15    6   34 1
  16    7    8 1
  17    7   11 1
  18    8    9 2
  19    9   10 1
  20   10   16 2
  21   10   28 1
  22   11   12 2
  23   11   14 am
  24   13   14 1
  25   13   17 1
  26   13   21 1
  27   13   35 1
  28   14   36 1
  29   15   37 1
  30   15   38 1
  31   15   39 1
  32   16   25 1
  33   16   40 1
  34   17   18 1
  35   17   19 1
  36   17   20 1
  37   18   41 1
  38   18   42 1
  39   18   43 1
  40   19   44 1
  41   19   45 1
  42   19   46 1
  43   20   47 1
  44   20   48 1
  45   20   49 1
  46   21   22 2
  47   21   23 am
  48   23   24 1
  49   23   50 1
  50   24   51 1
  51   24   52 1
  52   24   53 1
  53   25   26 1
  54   25   54 1
  55   25   55 1
  56   26   27 1
  57   26   56 1
  58   26   57 1
  59   27   28 1
  60   27   58 1
  61   27   59 1
  62   28   60 1
  63   28   61 1

#	End of record

