#	Name: ASD01880172
#	Creating user name:	WinNT
#	Creation time:	15. 06. 2019 19:40

#	Modifying user name:	WinNT
#	Modification time:	15. 06. 2019 19:40

#	Program:	/corina/corina34_cracker 3.40 0067  02.08.2006

@<TRIPOS>MOLECULE
ASD01880172
  70   74    0    0    0
SMALL
NO_CHARGES


@<TRIPOS>ATOM
   1 C1            -0.4349     0.8448    -0.3860 C.ar    
   2 C2            -0.3050    -0.5196    -0.2188 C.ar    
   3 C3            -1.4348    -1.3182    -0.0626 C.ar    
   4 C4            -2.6943    -0.7612    -0.0721 C.ar    
   5 C5            -2.8464     0.6110    -0.2388 C.ar    
   6 C6            -1.7068     1.4211    -0.3914 C.ar    
   7 O7             0.9313    -1.0858    -0.2070 O.3     
   8 C8             0.9945    -2.5024    -0.0298 C.3     
   9 C9             7.0118    -4.3025     1.1112 C.ar    
  10 C10            6.9616    -5.5165     1.7845 C.ar    
  11 C11            7.6095    -5.6640     2.9920 C.ar    
  12 C12            8.3171    -4.5921     3.5378 C.ar    
  13 C13            8.3659    -3.3740     2.8584 C.ar    
  14 C14            7.7151    -3.2334     1.6516 C.ar    
  15 C15            9.0134    -4.7465     4.8338 C.2     
  16 N16            9.0506    -5.8320     5.5782 N.2     
  17 N17            9.7430    -5.6256     6.6397 N.2     
  18 N18           10.1923    -4.4176     6.6554 N.2     
  19 N19            9.7392    -3.7984     5.4774 N.pl3   
  20 C20            0.7890     1.7076    -0.5555 C.3     
  21 C21            1.1335     1.8177    -2.0421 C.3     
  22 C22            2.3760     2.6937    -2.2141 C.3     
  23 N23           -3.9453     1.4425    -0.2902 N.pl3   
  24 C24           -3.5407     2.7364    -0.4735 C.2     
  25 C25           -2.2011     2.7919    -0.5421 C.2     
  26 C26           -5.3382     1.0055    -0.1668 C.3     
  27 C27           -5.7149     0.9145     1.3133 C.3     
  28 C28           -5.5517     2.2883     1.9666 C.3     
  29 C29           -7.1696     0.4581     1.4421 C.3     
  30 C30           -4.8003    -0.0941     2.0113 C.3     
  31 C31            2.4345    -2.9466    -0.0435 C.ar    
  32 C32            3.1518    -2.9990     1.1375 C.ar    
  33 C33            4.4719    -3.4058     1.1277 C.ar    
  34 C34            5.0780    -3.7621    -0.0686 C.ar    
  35 C35            4.3559    -3.7086    -1.2523 C.ar    
  36 C36            3.0344    -3.3065    -1.2362 C.ar    
  37 O37            6.3765    -4.1622    -0.0809 O.3     
  38 H38           -1.3224    -2.3845     0.0669 H       
  39 H39           -3.5638    -1.3901     0.0496 H       
  40 H40            0.5408    -2.7698     0.9245 H       
  41 H41            0.4549    -2.9942    -0.8392 H       
  42 H42            6.4138    -6.3456     1.3615 H       
  43 H43            7.5694    -6.6079     3.5153 H       
  44 H44            8.9122    -2.5424     3.2782 H       
  45 H45            7.7525    -2.2911     1.1253 H       
  46 H46            9.9055    -2.8873     5.1892 H       
  47 H47            0.5914     2.7014    -0.1537 H       
  48 H48            1.6264     1.2594    -0.0207 H       
  49 H49            1.3311     0.8239    -2.4439 H       
  50 H50            0.2961     2.2659    -2.5769 H       
  51 H51            3.2134     2.2455    -1.6794 H       
  52 H52            2.6215     2.7722    -3.2733 H       
  53 H53            2.1785     3.6875    -1.8124 H       
  54 H54           -4.2010     3.5877    -0.5488 H       
  55 H55           -1.6014     3.6791    -0.6821 H       
  56 H56           -5.9898     1.7240    -0.6641 H       
  57 H57           -5.4545     0.0268    -0.6322 H       
  58 H58           -6.2033     3.0068     1.4693 H       
  59 H59           -5.8201     2.2234     3.0210 H       
  60 H60           -4.5154     2.6134     1.8748 H       
  61 H61           -7.2859    -0.5207     0.9767 H       
  62 H62           -7.4380     0.3932     2.4965 H       
  63 H63           -7.8212     1.1766     0.9449 H       
  64 H64           -3.7640     0.2310     1.9195 H       
  65 H65           -5.0687    -0.1590     3.0657 H       
  66 H66           -4.9166    -1.0728     1.5458 H       
  67 H67            2.6797    -2.7213     2.0682 H       
  68 H68            5.0318    -3.4462     2.0504 H       
  69 H69            4.8253    -3.9854    -2.1847 H       
  70 H70            2.4719    -3.2650    -2.1571 H       
@<TRIPOS>BOND
   1    1    2 ar
   2    1   20 1
   3    1    6 ar
   4    2    3 ar
   5    2    7 1
   6    3    4 ar
   7    3   38 1
   8    4    5 ar
   9    4   39 1
  10    5    6 ar
  11    5   23 1
  12    6   25 1
  13    7    8 1
  14    8   31 1
  15    8   40 1
  16    8   41 1
  17    9   10 ar
  18    9   14 ar
  19    9   37 1
  20   10   11 ar
  21   10   42 1
  22   11   12 ar
  23   11   43 1
  24   12   13 ar
  25   12   15 1
  26   13   14 ar
  27   13   44 1
  28   14   45 1
  29   15   16 2
  30   15   19 1
  31   16   17 1
  32   17   18 2
  33   18   19 1
  34   19   46 1
  35   20   21 1
  36   20   47 1
  37   20   48 1
  38   21   22 1
  39   21   49 1
  40   21   50 1
  41   22   51 1
  42   22   52 1
  43   22   53 1
  44   23   24 1
  45   23   26 1
  46   24   25 2
  47   24   54 1
  48   25   55 1
  49   26   27 1
  50   26   56 1
  51   26   57 1
  52   27   28 1
  53   27   29 1
  54   27   30 1
  55   28   58 1
  56   28   59 1
  57   28   60 1
  58   29   61 1
  59   29   62 1
  60   29   63 1
  61   30   64 1
  62   30   65 1
  63   30   66 1
  64   31   32 ar
  65   31   36 ar
  66   32   33 ar
  67   32   67 1
  68   33   34 ar
  69   33   68 1
  70   34   35 ar
  71   34   37 1
  72   35   36 ar
  73   35   69 1
  74   36   70 1

#	End of record

