#	Name: ASD03430144
#	Creating user name:	WinNT
#	Creation time:	15. 06. 2019 20:40

#	Modifying user name:	WinNT
#	Modification time:	15. 06. 2019 20:40

#	Program:	/corina/corina34_cracker 3.40 0067  02.08.2006

@<TRIPOS>MOLECULE
ASD03430144
  56   61    0    0    0
SMALL
NO_CHARGES


@<TRIPOS>ATOM
   1 C1            -0.0166     1.3731     0.0096 C.ar    
   2 C2             0.0021    -0.0041     0.0020 C.ar    
   3 C3             1.2042    -0.6801    -0.0037 C.ar    
   4 C4             2.4064     0.0226     0.0069 C.ar    
   5 C5             2.3789     1.4121     0.0039 C.ar    
   6 C6             1.1699     2.0972     0.0022 C.ar    
   7 O7             3.4725    -0.8269     0.0325 O.3     
   8 C8             1.5601    -2.1417    -0.0330 C.3     
   9 C9             3.0504    -2.1336    -0.4017 C.3     
  10 C10            0.4369    -3.8650     1.0109 C.ar    
  11 C11            1.3140    -2.8180     1.2832 C.ar    
  12 C12            0.7430    -2.9080    -1.0329 C.2     
  13 N13            0.1236    -3.8915    -0.3499 N.am    
  14 O14            0.6571    -2.6857    -2.2222 O.2     
  15 C15            1.7632    -2.5964     2.5654 C.ar    
  16 C16            1.3449    -3.4168     3.5984 C.ar    
  17 C17            0.4739    -4.4591     3.3397 C.ar    
  18 C18            0.0205    -4.6852     2.0566 C.ar    
  19 C19           -1.1514     2.3780     0.0353 C.3     
  20 C20           -0.4169     3.6802     0.4334 C.3     
  21 O21            0.9269     3.4375    -0.0164 O.3     
  22 C22           -0.7732    -4.8739    -0.9637 C.3     
  23 C23           -2.2076    -4.3423    -0.9361 C.3     
  24 O24           -2.3003    -3.1788    -1.7606 O.3     
  25 C25           -3.1602    -5.4176    -1.4625 C.3     
  26 C26           -3.2874    -2.2391    -1.3308 C.3     
  27 C27           -3.2983    -1.0584    -2.2673 C.ar    
  28 C28           -2.4263    -1.0286    -3.3388 C.ar    
  29 C29           -2.4444     0.0624    -4.1946 C.ar    
  30 C30           -3.3430     1.0866    -3.9390 C.ar    
  31 C31           -4.1851     0.9870    -2.8474 C.ar    
  32 N32           -4.1438    -0.0682    -2.0578 N.ar    
  33 H33           -0.9264    -0.5557     0.0009 H       
  34 H34            3.3066     1.9651     0.0036 H       
  35 H35            3.1836    -2.2456    -1.4777 H       
  36 H36            3.5871    -2.9132     0.1390 H       
  37 H37            2.4432    -1.7815     2.7654 H       
  38 H38            1.6983    -3.2437     4.6042 H       
  39 H39            0.1473    -5.0993     4.1458 H       
  40 H40           -0.6595    -5.5014     1.8622 H       
  41 H41           -1.6088     2.4743    -0.9494 H       
  42 H42           -1.8955     2.1061     0.7839 H       
  43 H43           -0.8473     4.5392    -0.0813 H       
  44 H44           -0.4426     3.8232     1.5137 H       
  45 H45           -0.4699    -5.0476    -1.9962 H       
  46 H46           -0.7219    -5.8100    -0.4076 H       
  47 H47           -2.4801    -4.0849     0.0874 H       
  48 H48           -2.8878    -5.6749    -2.4860 H       
  49 H49           -3.0895    -6.3051    -0.8336 H       
  50 H50           -4.1821    -5.0389    -1.4428 H       
  51 H51           -4.2680    -2.7149    -1.3345 H       
  52 H52           -3.0516    -1.9004    -0.3219 H       
  53 H53           -1.7391    -1.8445    -3.5075 H       
  54 H54           -1.7742     0.1131    -5.0400 H       
  55 H55           -3.3844     1.9515    -4.5845 H       
  56 H56           -4.8878     1.7808    -2.6412 H       
@<TRIPOS>BOND
   1    1    2 ar
   2    1    6 ar
   3    1   19 1
   4    2    3 ar
   5    2   33 1
   6    3    4 ar
   7    3    8 1
   8    4    5 ar
   9    4    7 1
  10    5    6 ar
  11    5   34 1
  12    6   21 1
  13    7    9 1
  14    8    9 1
  15    8   11 1
  16    8   12 1
  17    9   35 1
  18    9   36 1
  19   10   11 ar
  20   10   13 1
  21   10   18 ar
  22   11   15 ar
  23   12   13 am
  24   12   14 2
  25   13   22 1
  26   15   16 ar
  27   15   37 1
  28   16   17 ar
  29   16   38 1
  30   17   18 ar
  31   17   39 1
  32   18   40 1
  33   19   20 1
  34   19   41 1
  35   19   42 1
  36   20   21 1
  37   20   43 1
  38   20   44 1
  39   22   23 1
  40   22   45 1
  41   22   46 1
  42   23   24 1
  43   23   25 1
  44   23   47 1
  45   24   26 1
  46   25   48 1
  47   25   49 1
  48   25   50 1
  49   26   27 1
  50   26   51 1
  51   26   52 1
  52   27   28 ar
  53   27   32 ar
  54   28   29 ar
  55   28   53 1
  56   29   30 ar
  57   29   54 1
  58   30   31 ar
  59   30   55 1
  60   31   32 ar
  61   31   56 1

#	End of record

