#	Name: ASD01410835
#	Creating user name:	WinNT
#	Creation time:	15. 06. 2019 19:18

#	Modifying user name:	WinNT
#	Modification time:	15. 06. 2019 19:18

#	Program:	/corina/corina34_cracker 3.40 0067  02.08.2006

@<TRIPOS>MOLECULE
ASD01410835
 110  116    0    0    0
SMALL
NO_CHARGES


@<TRIPOS>ATOM
   1 C1             0.3176     2.4494     2.1676 C.3     
   2 C2             0.4226     1.0643     2.8471 C.3     
   3 N3             0.8187     1.3651     4.2384 N.am    
   4 C4             0.3367     2.7095     4.5782 C.3     
   5 C5            -0.3090     3.3002     3.3059 C.3     
   6 O6             1.6091     2.9442     1.8081 O.3     
   7 C7            -0.6877     2.6233     5.6802 C.2     
   8 O8            -0.9914     1.5441     6.1428 O.2     
   9 N9            -1.2664     3.7456     6.1516 N.am    
  10 C10            1.5578     0.2585     2.2060 C.3     
  11 N11            1.8308    -0.8984     3.0682 N.am    
  12 C12            2.1509    -0.7158     4.4822 C.3     
  13 C13            1.5351     0.5435     5.0240 C.2     
  14 O14            1.6879     0.8238     6.1941 O.2     
  15 C15            1.6217    -1.9131     5.2742 C.3     
  16 C16            1.8376    -1.6712     6.7694 C.3     
  17 C17            0.1273    -2.0880     4.9964 C.3     
  18 C18           -2.3445     3.6545     7.1393 C.3     
  19 C19           -3.6183     3.0121     6.6537 C.2     
  20 N20           -3.7579     2.6921     5.3520 N.am    
  21 O21           -4.5177     2.7830     7.4344 O.2     
  22 S22           -5.2011     2.1012     4.7948 S.o2    
  23 C23           -6.3670     3.4735     5.0139 C.3     
  24 C24           -1.9478     3.4222     8.5986 C.3     
  25 C25           -2.4694     4.7914     8.1555 C.3     
  26 C26           -7.8397     3.2069     4.6960 C.3     
  27 C27           -7.3864     3.3600     6.1493 C.3     
  28 O28           -4.9706     1.8584     3.4138 O.2     
  29 O29           -5.5108     1.0370     5.6841 O.2     
  30 C30           -2.8611     2.5689     9.4406 C.2     
  31 C31           -2.4091     1.4674     9.9870 C.2     
  32 C32            1.6594     3.8767     0.8248 C.ar    
  33 C33            2.8971     4.4000     0.3831 C.ar    
  34 C34            0.5130     4.3329     0.2289 C.ar    
  35 C35            0.5920     5.2968    -0.7856 C.ar    
  36 N36            1.7539     5.7831    -1.1881 N.ar    
  37 C37            2.9053     5.3726    -0.6472 C.ar    
  38 C38           -0.6520     5.7805    -1.4203 C.2     
  39 S39           -2.2817     5.2526    -1.0088 S.3     
  40 C40            4.1343     5.8977    -1.0834 C.ar    
  41 C41            5.3050     5.4566    -0.5078 C.ar    
  42 C42            5.2845     4.4932     0.5047 C.ar    
  43 C43            4.1075     3.9722     0.9476 C.ar    
  44 Cl44           4.1758     7.0943    -2.3404 Cl      
  45 O45            6.4932     5.9632    -0.9292 O.3     
  46 C46            7.6725     5.4658    -0.2935 C.3     
  47 N47           -0.7198     6.6696    -2.3697 N.2     
  48 C48           -1.9139     6.9788    -2.8140 C.2     
  49 C49           -2.9368     6.3392    -2.2323 C.2     
  50 C50           -2.1227     7.9926    -3.9093 C.3     
  51 C51           -2.2224     7.2744    -5.2566 C.3     
  52 C52           -3.4157     8.7674    -3.6475 C.3     
  53 O53            1.5829    -2.3140     1.2302 O.3     
  54 C54            1.5454    -3.6809     0.7419 C.3     
  55 C55            0.4108    -4.4389     1.4341 C.3     
  56 C56            1.3080    -3.6763    -0.7696 C.3     
  57 C57            2.8781    -4.3680     1.0466 C.3     
  58 C58            1.7852    -2.1418     2.5501 C.2     
  59 O59            1.9266    -3.1073     3.2741 O.2     
  60 H60           -0.3401     2.4108     1.2992 H       
  61 H61           -0.5274     0.5311     2.8104 H       
  62 H62            1.1723     3.3340     4.8941 H       
  63 H63           -0.0441     4.3513     3.1918 H       
  64 H64           -1.3915     3.1748     3.3294 H       
  65 H65           -0.9690     4.6136     5.8368 H       
  66 H66            1.2549    -0.0825     1.2160 H       
  67 H67            2.4510     0.8782     2.1262 H       
  68 H68            3.2334    -0.6625     4.5989 H       
  69 H69            2.1555    -2.8138     4.9711 H       
  70 H70            1.3039    -0.7704     7.0725 H       
  71 H71            1.4606    -2.5241     7.3337 H       
  72 H72            2.9023    -1.5465     6.9673 H       
  73 H73           -0.0265    -2.2604     3.9312 H       
  74 H74           -0.2497    -2.9410     5.5607 H       
  75 H75           -0.4064    -1.1873     5.2995 H       
  76 H76           -3.0131     2.8080     4.7415 H       
  77 H77           -5.9745     4.4647     4.7868 H       
  78 H78           -0.8847     3.3371     8.8238 H       
  79 H79           -1.7493     5.6070     8.0895 H       
  80 H80           -3.4729     5.0745     8.4732 H       
  81 H81           -8.4161     4.0228     4.2600 H       
  82 H82           -8.1079     2.2069     4.3552 H       
  83 H83           -7.3564     2.4607     6.7645 H       
  84 H84           -7.6646     4.2766     6.6693 H       
  85 H85           -3.8883     2.8655     9.5935 H       
  86 H86           -1.3819     1.1708     9.8341 H       
  87 H87           -3.0636     0.8559    10.5903 H       
  88 H88           -0.4481     3.9508     0.5396 H       
  89 H89            6.2137     4.1605     0.9433 H       
  90 H90            4.1059     3.2284     1.7307 H       
  91 H91            8.5489     5.9516    -0.7225 H       
  92 H92            7.6261     5.6775     0.7748 H       
  93 H93            7.7419     4.3891    -0.4479 H       
  94 H94           -3.9822     6.4679    -2.4708 H       
  95 H95           -1.2815     8.6854    -3.9283 H       
  96 H96           -2.3734     8.0076    -6.0489 H       
  97 H97           -1.3012     6.7224    -5.4432 H       
  98 H98           -3.0637     6.5815    -5.2376 H       
  99 H99           -3.3447     9.2790    -2.6876 H       
 100 H100          -3.5667     9.5006    -4.4397 H       
 101 H101          -4.2570     8.0745    -3.6285 H       
 102 H102          -0.5386    -3.9494     1.2169 H       
 103 H103           0.3828    -5.4650     1.0675 H       
 104 H104           0.5800    -4.4422     2.5108 H       
 105 H105           2.1163    -3.1363    -1.2627 H       
 106 H106           1.2799    -4.7024    -1.1361 H       
 107 H107           0.3586    -3.1868    -0.9867 H       
 108 H108           3.0473    -4.3714     2.1234 H       
 109 H109           2.8500    -5.3942     0.6801 H       
 110 H110           3.6864    -3.8281     0.5535 H       
@<TRIPOS>BOND
   1    1    2 1
   2    1    6 1
   3    1    5 1
   4    1   60 1
   5    2    3 1
   6    2   10 1
   7    2   61 1
   8    3    4 1
   9    3   13 am
  10    4    5 1
  11    4    7 1
  12    4   62 1
  13    5   63 1
  14    5   64 1
  15    6   32 1
  16    7    8 2
  17    7    9 am
  18    9   18 1
  19    9   65 1
  20   10   11 1
  21   10   66 1
  22   10   67 1
  23   11   12 1
  24   11   58 am
  25   12   13 1
  26   12   15 1
  27   12   68 1
  28   13   14 2
  29   15   16 1
  30   15   17 1
  31   15   69 1
  32   16   70 1
  33   16   71 1
  34   16   72 1
  35   17   73 1
  36   17   74 1
  37   17   75 1
  38   18   19 1
  39   18   24 1
  40   18   25 1
  41   19   20 am
  42   19   21 2
  43   20   22 am
  44   20   76 1
  45   22   23 1
  46   22   28 2
  47   22   29 2
  48   23   26 1
  49   23   27 1
  50   23   77 1
  51   24   25 1
  52   24   30 1
  53   24   78 1
  54   25   79 1
  55   25   80 1
  56   26   27 1
  57   26   81 1
  58   26   82 1
  59   27   83 1
  60   27   84 1
  61   30   31 2
  62   30   85 1
  63   31   86 1
  64   31   87 1
  65   32   33 ar
  66   32   34 ar
  67   33   37 ar
  68   33   43 ar
  69   34   35 ar
  70   34   88 1
  71   35   36 ar
  72   35   38 1
  73   36   37 ar
  74   37   40 ar
  75   38   47 2
  76   38   39 1
  77   39   49 1
  78   40   41 ar
  79   40   44 1
  80   41   42 ar
  81   41   45 1
  82   42   43 ar
  83   42   89 1
  84   43   90 1
  85   45   46 1
  86   46   91 1
  87   46   92 1
  88   46   93 1
  89   47   48 1
  90   48   49 2
  91   48   50 1
  92   49   94 1
  93   50   51 1
  94   50   52 1
  95   50   95 1
  96   51   96 1
  97   51   97 1
  98   51   98 1
  99   52   99 1
 100   52  100 1
 101   52  101 1
 102   53   54 1
 103   53   58 1
 104   54   55 1
 105   54   56 1
 106   54   57 1
 107   55  102 1
 108   55  103 1
 109   55  104 1
 110   56  105 1
 111   56  106 1
 112   56  107 1
 113   57  108 1
 114   57  109 1
 115   57  110 1
 116   58   59 2

#	End of record

