#	Name: ASD01811620
#	Creating user name:	WinNT
#	Creation time:	15. 06. 2019 19:27

#	Modifying user name:	WinNT
#	Modification time:	15. 06. 2019 19:27

#	Program:	/corina/corina34_cracker 3.40 0067  02.08.2006

@<TRIPOS>MOLECULE
ASD01811620
  28   29    0    0    0
SMALL
NO_CHARGES


@<TRIPOS>ATOM
   1 C1             0.0021    -0.0041     0.0020 C.1     
   2 C2            -0.0173     1.4278     0.0099 C.ar    
   3 C3             1.1804     2.1455     0.0023 C.ar    
   4 C4             1.1544     3.5247     0.0100 C.ar    
   5 C5            -0.0549     4.1969     0.0257 C.ar    
   6 C6            -1.2455     3.4920     0.0337 C.ar    
   7 C7            -1.2341     2.1126     0.0194 C.ar    
   8 N8             0.0175    -1.1399    -0.0042 N.1     
   9 N9            -1.1472     8.1634     1.1020 N.3     
  10 C10           -1.5099     7.7270    -0.2524 C.3     
  11 C11           -1.4797     6.1985    -0.3225 C.3     
  12 C12           -0.0753     5.7037     0.0345 C.3     
  13 C13            0.2971     6.2123     1.4299 C.3     
  14 C14            0.2154     7.7404     1.4492 C.3     
  15 F15            0.8436     6.1892    -0.9020 F       
  16 H16            2.1250     1.6220    -0.0092 H       
  17 H17            2.0800     4.0810     0.0042 H       
  18 H18           -2.1859     4.0230     0.0463 H       
  19 H19           -2.1642     1.5637     0.0208 H       
  20 H20           -1.2519     9.1622     1.2002 H       
  21 H21           -2.5122     8.0818    -0.4922 H       
  22 H22           -0.7984     8.1375    -0.9690 H       
  23 H23           -2.2009     5.7875     0.3840 H       
  24 H24           -1.7337     5.8754    -1.3320 H       
  25 H25           -0.3961     5.8016     2.1640 H       
  26 H26            1.3126     5.8991     1.6724 H       
  27 H27            0.9188     8.1509     0.7247 H       
  28 H28            0.4662     8.1050     2.4453 H       
@<TRIPOS>BOND
   1    1    2 1
   2    1    8 3
   3    2    3 ar
   4    2    7 ar
   5    3    4 ar
   6    3   16 1
   7    4    5 ar
   8    4   17 1
   9    5    6 ar
  10    5   12 1
  11    6    7 ar
  12    6   18 1
  13    7   19 1
  14    9   10 1
  15    9   14 1
  16    9   20 1
  17   10   11 1
  18   10   21 1
  19   10   22 1
  20   11   12 1
  21   11   23 1
  22   11   24 1
  23   12   13 1
  24   12   15 1
  25   13   14 1
  26   13   25 1
  27   13   26 1
  28   14   27 1
  29   14   28 1

#	End of record

