#	Name: ASD01813465
#	Creating user name:	WinNT
#	Creation time:	15. 06. 2019 19:30

#	Modifying user name:	WinNT
#	Modification time:	15. 06. 2019 19:30

#	Program:	/corina/corina34_cracker 3.40 0067  02.08.2006

@<TRIPOS>MOLECULE
ASD01813465
  48   53    0    0    0
SMALL
NO_CHARGES


@<TRIPOS>ATOM
   1 C1            -0.0178     1.4608     0.0101 C.3     
   2 N2             0.0021    -0.0041     0.0020 N.pl3   
   3 C3             0.0074    -0.7682    -1.1002 C.2     
   4 C4             0.0271    -2.0867    -0.7014 C.ar    
   5 C5             0.0410    -3.3778    -1.3910 C.ar    
   6 C6             0.0598    -4.5315    -0.6327 C.ar    
   7 C7             0.0651    -4.4832     0.7590 C.ar    
   8 C8             0.0528    -3.3168     1.4501 C.ar    
   9 C9             0.0338    -2.0809     0.7697 C.ar    
  10 N10            0.0244    -0.8140     1.1435 N.2     
  11 C11            0.0347    -3.4452    -2.8701 C.ar    
  12 C12           -0.8994    -2.7104    -3.6004 C.ar    
  13 C13           -0.9015    -2.7765    -4.9788 C.ar    
  14 C14            0.0202    -3.5694    -5.6378 C.ar    
  15 C15            0.0121    -3.6367    -7.1433 C.3     
  16 N16            1.1338    -2.8574    -7.6730 N.am    
  17 C17            1.1055    -1.4311    -8.0187 C.3     
  18 C18            2.4909    -1.0971    -8.5159 C.2     
  19 C19            3.0653     0.0885    -8.9820 C.2     
  20 C20            4.3701     0.1024    -9.3756 C.2     
  21 C21            5.1252    -1.0846    -9.3067 C.2     
  22 N22            6.3795    -1.3804    -9.6078 N.2     
  23 N23            6.5930    -2.6257    -9.3622 N.2     
  24 C24            5.5046    -3.1879    -8.8975 C.2     
  25 N25            4.5447    -2.2400    -8.8462 N.pl3   
  26 C26            3.2237    -2.2491    -8.4490 C.2     
  27 C27            2.3703    -3.3224    -7.9219 C.2     
  28 O28            2.7310    -4.4696    -7.7384 O.2     
  29 C29            0.9516    -4.3020    -4.9191 C.ar    
  30 F30            1.8495    -5.0743    -5.5690 F       
  31 C31            0.9664    -4.2393    -3.5387 C.ar    
  32 H32            1.0048     1.8381     0.0023 H       
  33 H33           -0.5450     1.8219    -0.8730 H       
  34 H34           -0.5280     1.8123     0.9069 H       
  35 H35           -0.0022    -0.4127    -2.1199 H       
  36 H36            0.0702    -5.4907    -1.1289 H       
  37 H37            0.0792    -5.4120     1.3098 H       
  38 H38            0.0577    -3.3338     2.5299 H       
  39 H39           -1.6203    -2.0908    -3.0877 H       
  40 H40           -1.6249    -2.2078    -5.5443 H       
  41 H41            0.1087    -4.6749    -7.4611 H       
  42 H42           -0.9251    -3.2271    -7.5203 H       
  43 H43            0.3709    -1.2494    -8.8033 H       
  44 H44            0.8692    -0.8356    -7.1369 H       
  45 H45            2.4760     0.9923    -9.0306 H       
  46 H46            4.8207     1.0149    -9.7373 H       
  47 H47            5.3951    -4.2226    -8.6081 H       
  48 H48            1.6950    -4.8068    -2.9789 H       
@<TRIPOS>BOND
   1    1    2 1
   2    1   32 1
   3    1   33 1
   4    1   34 1
   5    2   10 1
   6    2    3 1
   7    3    4 2
   8    3   35 1
   9    4    9 ar
  10    4    5 ar
  11    5    6 ar
  12    5   11 1
  13    6    7 ar
  14    6   36 1
  15    7    8 ar
  16    7   37 1
  17    8    9 ar
  18    8   38 1
  19    9   10 2
  20   11   31 ar
  21   11   12 ar
  22   12   13 ar
  23   12   39 1
  24   13   14 ar
  25   13   40 1
  26   14   15 1
  27   14   29 ar
  28   15   16 1
  29   15   41 1
  30   15   42 1
  31   16   27 am
  32   16   17 1
  33   17   18 1
  34   17   43 1
  35   17   44 1
  36   18   26 2
  37   18   19 1
  38   19   20 2
  39   19   45 1
  40   20   21 1
  41   20   46 1
  42   21   25 1
  43   21   22 2
  44   22   23 1
  45   23   24 2
  46   24   25 1
  47   24   47 1
  48   25   26 1
  49   26   27 1
  50   27   28 2
  51   29   30 1
  52   29   31 ar
  53   31   48 1

#	End of record

