#	Name: ASD00060035
#	Creating user name:	WinNT
#	Creation time:	15. 06. 2019 18:29

#	Modifying user name:	WinNT
#	Modification time:	15. 06. 2019 18:29

#	Program:	/corina/corina34_cracker 3.40 0067  02.08.2006

@<TRIPOS>MOLECULE
ASD00060035
  29   30    0    0    0
SMALL
NO_CHARGES


@<TRIPOS>ATOM
   1 S1            -0.0225     1.8097     0.0120 S.3     
   2 C2             0.0021    -0.0041     0.0020 C.3     
   3 C3            -1.4333    -0.5336     0.0129 C.3     
   4 N4            -1.4134    -1.9985     0.0048 N.am    
   5 C5            -2.5713    -2.6882     0.0122 C.2     
   6 O6            -3.6330    -2.0944     0.0255 O.2     
   7 C7            -2.5514    -4.1589     0.0041 C.2     
   8 C8            -2.5505    -5.0440    -1.1778 C.ar    
   9 C9            -2.5271    -6.3496    -0.6668 C.ar    
  10 O10           -2.5150    -6.2614     0.6793 O.3     
  11 C11           -2.5239    -4.9859     1.0840 C.2     
  12 C12           -2.5210    -7.4240    -1.5483 C.ar    
  13 C13           -2.5380    -7.1991    -2.9081 C.ar    
  14 C14           -2.5612    -5.9068    -3.4109 C.ar    
  15 C15           -2.5671    -4.8286    -2.5521 C.ar    
  16 C16           -2.5093    -4.5333     2.5213 C.3     
  17 H17            1.2837     2.1301     0.0012 H       
  18 H18            0.5123    -0.3556    -0.8948 H       
  19 H19            0.5293    -0.3651     0.8851 H       
  20 H20           -1.9435    -0.1821     0.9097 H       
  21 H21           -1.9605    -0.1726    -0.8702 H       
  22 H22           -0.5669    -2.4720    -0.0058 H       
  23 H23           -2.5026    -8.4346    -1.1681 H       
  24 H24           -2.5328    -8.0376    -3.5888 H       
  25 H25           -2.5743    -5.7447    -4.4786 H       
  26 H26           -2.5852    -3.8224    -2.9439 H       
  27 H27           -3.5332    -4.4387     2.8829 H       
  28 H28           -1.9761    -5.2657     3.1275 H       
  29 H29           -2.0080    -3.5681     2.5932 H       
@<TRIPOS>BOND
   1    1    2 1
   2    1   17 1
   3    2    3 1
   4    2   18 1
   5    2   19 1
   6    3    4 1
   7    3   20 1
   8    3   21 1
   9    4    5 am
  10    4   22 1
  11    5    6 2
  12    5    7 1
  13    7    8 1
  14    7   11 2
  15    8    9 ar
  16    8   15 ar
  17    9   10 1
  18    9   12 ar
  19   10   11 1
  20   11   16 1
  21   12   13 ar
  22   12   23 1
  23   13   14 ar
  24   13   24 1
  25   14   15 ar
  26   14   25 1
  27   15   26 1
  28   16   27 1
  29   16   28 1
  30   16   29 1

#	End of record

