#	Name: ASD01700015
#	Creating user name:	WinNT
#	Creation time:	15. 06. 2019 19:22

#	Modifying user name:	WinNT
#	Modification time:	15. 06. 2019 19:22

#	Program:	/corina/corina34_cracker 3.40 0067  02.08.2006

@<TRIPOS>MOLECULE
ASD01700015
  76   80    0    0    0
SMALL
NO_CHARGES


@<TRIPOS>ATOM
   1 C1            -0.5013     2.3870    -0.0261 C.2     
   2 N2            -0.9277     1.2903     0.4333 N.am    
   3 C3            -0.4629     0.1430     1.1886 C.3     
   4 C4             0.8065    -0.4153     0.5284 C.3     
   5 C5             1.8279     0.6717     0.4364 C.2     
   6 O6             2.8947     0.2904     0.8694 O.2     
   7 N7             1.9122     1.8688     0.0421 N.am    
   8 C8             0.8958     2.8518    -0.2629 C.3     
   9 C9             1.0321     3.2507    -1.7337 C.3     
  10 C10            2.3184     4.0563    -1.9266 C.3     
  11 C11            2.3334     4.6648    -3.3303 C.3     
  12 C12            2.3805     5.1753    -0.8850 C.3     
  13 C13            3.2851     2.3473    -0.1381 C.3     
  14 C14           -2.3436     1.1250     0.0958 C.3     
  15 O15           -1.3636     3.1854    -0.3261 O.2     
  16 C16            4.0283     2.2451     1.1689 C.ar    
  17 C17            4.8956     1.1792     1.3960 C.ar    
  18 N18            5.5591     1.0571     2.5203 N.ar    
  19 C19            5.4323     1.9544     3.5027 C.ar    
  20 C20            4.5665     3.0639     3.3370 C.ar    
  21 C21            3.8564     3.2009     2.1297 C.ar    
  22 C22            4.4364     4.0034     4.3727 C.ar    
  23 C23            5.1434     3.8374     5.5242 C.ar    
  24 C24            5.9955     2.7471     5.6894 C.ar    
  25 C25            6.1459     1.8181     4.7065 C.ar    
  26 C26           -3.1753     2.1507     0.8685 C.3     
  27 C27           -2.9968     1.9297     2.3485 C.ar    
  28 C28           -1.9735     2.5926     3.0229 C.ar    
  29 C29           -1.7850     2.4152     4.3593 C.ar    
  30 C30           -2.6335     1.5518     5.0725 C.ar    
  31 C31           -3.6748     0.8778     4.3865 C.ar    
  32 C32           -3.8413     1.0898     3.0076 C.ar    
  33 C33           -4.5233     0.0138     5.1000 C.ar    
  34 C34           -4.3344    -0.1638     6.4359 C.ar    
  35 C35           -3.3107     0.4993     7.1105 C.ar    
  36 C36           -2.4697     1.3431     6.4526 C.ar    
  37 C37           -2.5351     1.3353    -1.3841 C.2     
  38 O38           -1.5827     1.5975    -2.0876 O.2     
  39 N39           -3.7649     1.2320    -1.9259 N.am    
  40 C40           -3.9511     1.4365    -3.3646 C.3     
  41 H41           -0.2383     0.4467     2.2110 H       
  42 H42           -1.2366    -0.6248     1.1975 H       
  43 H43            1.1998    -1.2350     1.1297 H       
  44 H44            0.5683    -0.7771    -0.4718 H       
  45 H45            1.0747     3.7357     0.3494 H       
  46 H46            1.0691     2.3535    -2.3515 H       
  47 H47            0.1756     3.8582    -2.0262 H       
  48 H48            3.1799     3.3995    -1.8061 H       
  49 H49            1.5233     5.3883    -3.4214 H       
  50 H50            3.2874     5.1642    -3.4996 H       
  51 H51            2.2004     3.8753    -4.0700 H       
  52 H52            2.3698     4.7418     0.1150 H       
  53 H53            3.2969     5.7492    -1.0225 H       
  54 H54            1.5189     5.8320    -1.0056 H       
  55 H55            3.7866     1.7379    -0.8899 H       
  56 H56            3.2675     3.3868    -0.4657 H       
  57 H57           -2.6661     0.1190     0.3645 H       
  58 H58            5.0248     0.4332     0.6258 H       
  59 H59            3.1913     4.0364     1.9687 H       
  60 H60            3.7795     4.8527     4.2563 H       
  61 H61            5.0430     4.5606     6.3200 H       
  62 H62            6.5458     2.6380     6.6122 H       
  63 H63            6.8107     0.9792     4.8507 H       
  64 H64           -2.8447     3.1563     0.6088 H       
  65 H65           -4.2275     2.0356     0.6082 H       
  66 H66           -1.3199     3.2568     2.4770 H       
  67 H67           -0.9871     2.9352     4.8686 H       
  68 H68           -4.6329     0.5861     2.4726 H       
  69 H69           -5.3212    -0.5062     4.5907 H       
  70 H70           -4.9878    -0.8283     6.9818 H       
  71 H71           -3.1829     0.3409     8.1711 H       
  72 H72           -1.6809     1.8501     6.9885 H       
  73 H73           -4.5267     1.0223    -1.3632 H       
  74 H74           -3.6286     2.4424    -3.6333 H       
  75 H75           -3.3586     0.7057    -3.9151 H       
  76 H76           -5.0046     1.3134    -3.6157 H       
@<TRIPOS>BOND
   1    1    2 am
   2    1    8 1
   3    1   15 2
   4    2    3 1
   5    2   14 1
   6    3    4 1
   7    3   41 1
   8    3   42 1
   9    4    5 1
  10    4   43 1
  11    4   44 1
  12    5    6 2
  13    5    7 am
  14    7    8 1
  15    7   13 1
  16    8    9 1
  17    8   45 1
  18    9   10 1
  19    9   46 1
  20    9   47 1
  21   10   11 1
  22   10   12 1
  23   10   48 1
  24   11   49 1
  25   11   50 1
  26   11   51 1
  27   12   52 1
  28   12   53 1
  29   12   54 1
  30   13   16 1
  31   13   55 1
  32   13   56 1
  33   14   26 1
  34   14   37 1
  35   14   57 1
  36   16   17 ar
  37   16   21 ar
  38   17   18 ar
  39   17   58 1
  40   18   19 ar
  41   19   20 ar
  42   19   25 ar
  43   20   21 ar
  44   20   22 ar
  45   21   59 1
  46   22   23 ar
  47   22   60 1
  48   23   24 ar
  49   23   61 1
  50   24   25 ar
  51   24   62 1
  52   25   63 1
  53   26   27 1
  54   26   64 1
  55   26   65 1
  56   27   28 ar
  57   27   32 ar
  58   28   29 ar
  59   28   66 1
  60   29   30 ar
  61   29   67 1
  62   30   31 ar
  63   30   36 ar
  64   31   32 ar
  65   31   33 ar
  66   32   68 1
  67   33   34 ar
  68   33   69 1
  69   34   35 ar
  70   34   70 1
  71   35   36 ar
  72   35   71 1
  73   36   72 1
  74   37   38 2
  75   37   39 am
  76   39   40 1
  77   39   73 1
  78   40   74 1
  79   40   75 1
  80   40   76 1

#	End of record

