#	Name: ASD01150192
#	Creating user name:	WinNT
#	Creation time:	15. 06. 2019 19:03

#	Modifying user name:	WinNT
#	Modification time:	15. 06. 2019 19:03

#	Program:	/corina/corina34_cracker 3.40 0067  02.08.2006

@<TRIPOS>MOLECULE
ASD01150192
  60   63    0    0    0
SMALL
NO_CHARGES


@<TRIPOS>ATOM
   1 N1            -0.2800     0.9707     0.3225 N.pl3   
   2 C2            -0.3981    -0.3932     0.0910 C.2     
   3 C3            -1.7384    -0.6268    -0.1972 C.2     
   4 N4            -2.3731     0.5450    -0.1368 N.2     
   5 C5            -1.5226     1.5017     0.1754 C.2     
   6 C6             0.5017    -1.4737     0.0950 C.2     
   7 N7             0.0462    -2.7133    -0.1806 N.am    
   8 C8            -1.2515    -2.9283    -0.4578 C.2     
   9 N9            -2.1462    -1.9223    -0.4723 N.am    
  10 O10            1.6807    -1.2923     0.3444 O.2     
  11 C11           -3.5521    -2.1975    -0.7786 C.3     
  12 O12           -1.6264    -4.0590    -0.7020 O.2     
  13 C13            0.9799    -3.8422    -0.1781 C.3     
  14 C14            1.0406    -4.4408     1.2036 C.ar    
  15 C15            0.1721    -5.4574     1.5549 C.ar    
  16 C16            0.2273    -6.0068     2.8219 C.ar    
  17 C17            1.1520    -5.5393     3.7387 C.ar    
  18 C18            2.0210    -4.5219     3.3865 C.ar    
  19 C19            1.9686    -3.9771     2.1173 C.ar    
  20 N20           -1.8412     2.8323     0.3216 N.3     
  21 C21            0.9456     1.6963     0.6653 C.3     
  22 C22           -4.3050    -2.5076     0.5167 C.3     
  23 Cl23           1.2216    -6.2285     5.3305 Cl      
  24 C24           -5.7733    -2.7951     0.1967 C.3     
  25 C25           -3.2777     3.0612     0.0811 C.3     
  26 C26           -3.8513     3.7347     1.3455 C.3     
  27 C27           -2.5967     4.3647     2.0056 C.3     
  28 C28           -1.5094     3.3103     1.6807 C.3     
  29 N29           -4.8252     4.7735     0.9843 N.3     
  30 C30           -5.9804     4.1927     0.2871 C.3     
  31 C31           -5.2512     5.5305     2.1689 C.3     
  32 H32           -3.9970    -1.3254    -1.2577 H       
  33 H33           -3.6167    -3.0536    -1.4503 H       
  34 H34            0.6391    -4.5972    -0.8866 H       
  35 H35            1.9716    -3.4940    -0.4671 H       
  36 H36           -0.5499    -5.8220     0.8392 H       
  37 H37           -0.4515    -6.8008     3.0963 H       
  38 H38            2.7430    -4.1565     4.1017 H       
  39 H39            2.6468    -3.1829     1.8423 H       
  40 H40            1.4380     2.0298    -0.2481 H       
  41 H41            0.6960     2.5611     1.2801 H       
  42 H42            1.6148     1.0378     1.2192 H       
  43 H43           -3.8601    -3.3797     0.9957 H       
  44 H44           -4.2404    -1.6516     1.1883 H       
  45 H45           -6.2183    -1.9230    -0.2824 H       
  46 H46           -5.8380    -3.6511    -0.4750 H       
  47 H47           -6.3098    -3.0160     1.1195 H       
  48 H48           -3.4098     3.7160    -0.7802 H       
  49 H49           -3.7808     2.1100    -0.0930 H       
  50 H50           -4.3032     2.9941     2.0054 H       
  51 H51           -2.3570     5.3257     1.5506 H       
  52 H52           -2.7318     4.4672     3.0824 H       
  53 H53           -1.5539     2.4871     2.3939 H       
  54 H54           -0.5207     3.7692     1.6908 H       
  55 H55           -6.4690     3.4662     0.9365 H       
  56 H56           -6.6856     4.9834     0.0312 H       
  57 H57           -5.6437     3.6973    -0.6236 H       
  58 H58           -4.4033     6.0862     2.5694 H       
  59 H59           -6.0427     6.2262     1.8903 H       
  60 H60           -5.6239     4.8407     2.9262 H       
@<TRIPOS>BOND
   1    1    2 1
   2    1   21 1
   3    1    5 1
   4    2    3 2
   5    2    6 1
   6    3    4 1
   7    3    9 1
   8    4    5 2
   9    5   20 1
  10    6    7 am
  11    6   10 2
  12    7    8 am
  13    7   13 1
  14    8    9 am
  15    8   12 2
  16    9   11 1
  17   11   22 1
  18   11   32 1
  19   11   33 1
  20   13   14 1
  21   13   34 1
  22   13   35 1
  23   14   15 ar
  24   14   19 ar
  25   15   16 ar
  26   15   36 1
  27   16   17 ar
  28   16   37 1
  29   17   18 ar
  30   17   23 1
  31   18   19 ar
  32   18   38 1
  33   19   39 1
  34   20   25 1
  35   20   28 1
  36   21   40 1
  37   21   41 1
  38   21   42 1
  39   22   24 1
  40   22   43 1
  41   22   44 1
  42   24   45 1
  43   24   46 1
  44   24   47 1
  45   25   26 1
  46   25   48 1
  47   25   49 1
  48   26   27 1
  49   26   29 1
  50   26   50 1
  51   27   28 1
  52   27   51 1
  53   27   52 1
  54   28   53 1
  55   28   54 1
  56   29   30 1
  57   29   31 1
  58   30   55 1
  59   30   56 1
  60   30   57 1
  61   31   58 1
  62   31   59 1
  63   31   60 1

#	End of record

