#	Name: ASD02030515
#	Creating user name:	WinNT
#	Creation time:	15. 06. 2019 20:15

#	Modifying user name:	WinNT
#	Modification time:	15. 06. 2019 20:15

#	Program:	/corina/corina34_cracker 3.40 0067  02.08.2006

@<TRIPOS>MOLECULE
ASD02030515
  58   61    0    0    0
SMALL
NO_CHARGES


@<TRIPOS>ATOM
   1 N1            -0.1362     1.6277    -0.2921 N.am    
   2 C2            -0.2333     0.1643    -0.3864 C.3     
   3 C3            -1.0511    -0.3503     0.8047 C.3     
   4 N4            -2.2884     0.4369     0.9000 N.am    
   5 C5            -2.1913     1.9003     0.9944 C.3     
   6 C6            -1.3733     2.4146    -0.1911 C.3     
   7 C7             1.0660     2.2368    -0.2926 C.2     
   8 C8             2.3037     1.4296    -0.2473 C.2     
   9 N9             3.5264     1.8950    -0.1089 N.2     
  10 N10            2.3776     0.0887    -0.3344 N.2     
  11 C11            3.6425    -0.2371    -0.2529 C.2     
  12 N12            4.3490     0.9032    -0.1121 N.pl3   
  13 O13            1.1327     3.4500    -0.3303 O.2     
  14 C14           -3.4907    -0.1722     0.9006 C.2     
  15 C15           -3.5718    -1.6512     0.8701 C.ar    
  16 O16           -4.5081     0.4917     0.9260 O.2     
  17 C17           -1.0292     3.8898     0.0239 C.3     
  18 C18           -2.1814     2.2548    -1.4804 C.3     
  19 C19            5.7422     0.9940     0.0097 C.ar    
  20 C20            6.3488     2.2349     0.1496 C.ar    
  21 C21            7.7222     2.3211     0.2694 C.ar    
  22 C22            8.4927     1.1733     0.2497 C.ar    
  23 C23            7.8913    -0.0644     0.1105 C.ar    
  24 C24            6.5183    -0.1575    -0.0035 C.ar    
  25 C25            8.3815     3.6677     0.4212 C.3     
  26 N26           -2.4989    -2.3752     1.1686 N.ar    
  27 C27           -2.5297    -3.6940     1.1532 C.ar    
  28 C28           -3.6976    -4.3754     0.8206 C.ar    
  29 C29           -4.8355    -3.6546     0.5038 C.ar    
  30 C30           -4.7728    -2.2689     0.5345 C.ar    
  31 O31           -1.4103    -4.3945     1.4645 O.3     
  32 C32           -0.2437    -3.6390     1.7966 C.3     
  33 H33           -0.7300    -0.1101    -1.3170 H       
  34 H34            0.7656    -0.2711    -0.3598 H       
  35 H35           -1.2970    -1.4013     0.6528 H       
  36 H36           -0.4732    -0.2361     1.7218 H       
  37 H37           -3.1902     2.3357     0.9677 H       
  38 H38           -1.6946     2.1748     1.9250 H       
  39 H39            4.0470    -1.2379    -0.2887 H       
  40 H40           -0.2738     3.9766     0.8049 H       
  41 H41           -0.6428     4.3117    -0.9039 H       
  42 H42           -1.9259     4.4321     0.3239 H       
  43 H43           -3.1060     2.8270    -1.4030 H       
  44 H44           -1.5965     2.6220    -2.3237 H       
  45 H45           -2.4176     1.2017    -1.6331 H       
  46 H46            5.7475     3.1319     0.1643 H       
  47 H47            9.5664     1.2433     0.3428 H       
  48 H48            8.4958    -0.9592     0.0955 H       
  49 H49            6.0492    -1.1243    -0.1118 H       
  50 H50            8.4560     3.9186     1.4793 H       
  51 H51            9.3796     3.6349    -0.0155 H       
  52 H52            7.7857     4.4237    -0.0904 H       
  53 H53           -3.7151    -5.4552     0.8098 H       
  54 H54           -5.7536    -4.1597     0.2425 H       
  55 H55           -5.6431    -1.6769     0.2925 H       
  56 H56            0.0319    -3.0064     0.9528 H       
  57 H57           -0.4502    -3.0152     2.6662 H       
  58 H58            0.5771    -4.3192     2.0240 H       
@<TRIPOS>BOND
   1    1    2 1
   2    1    7 am
   3    1    6 1
   4    2    3 1
   5    2   33 1
   6    2   34 1
   7    3    4 1
   8    3   35 1
   9    3   36 1
  10    4    5 1
  11    4   14 am
  12    5    6 1
  13    5   37 1
  14    5   38 1
  15    6   17 1
  16    6   18 1
  17    7    8 1
  18    7   13 2
  19    8    9 2
  20    8   10 1
  21    9   12 1
  22   10   11 2
  23   11   12 1
  24   11   39 1
  25   12   19 1
  26   14   15 1
  27   14   16 2
  28   15   26 ar
  29   15   30 ar
  30   17   40 1
  31   17   41 1
  32   17   42 1
  33   18   43 1
  34   18   44 1
  35   18   45 1
  36   19   20 ar
  37   19   24 ar
  38   20   21 ar
  39   20   46 1
  40   21   22 ar
  41   21   25 1
  42   22   23 ar
  43   22   47 1
  44   23   24 ar
  45   23   48 1
  46   24   49 1
  47   25   50 1
  48   25   51 1
  49   25   52 1
  50   26   27 ar
  51   27   28 ar
  52   27   31 1
  53   28   29 ar
  54   28   53 1
  55   29   30 ar
  56   29   54 1
  57   30   55 1
  58   31   32 1
  59   32   56 1
  60   32   57 1
  61   32   58 1

#	End of record

