#	Name: ASD09116371
#	Creating user name:	WinNT
#	Creation time:	15. 06. 2019 21:21

#	Modifying user name:	WinNT
#	Modification time:	15. 06. 2019 21:21

#	Program:	/corina/corina34_cracker 3.40 0067  02.08.2006

@<TRIPOS>MOLECULE
ASD09116371
  58   63    0    0    0
SMALL
NO_CHARGES


@<TRIPOS>ATOM
   1 N1            -0.0086     1.3942    -0.0868 N.2     
   2 N2            -0.0041     0.0002     0.0819 N.pl3   
   3 C3             1.2252     1.8046     0.0850 C.2     
   4 N4             2.0028     0.7486     0.3516 N.2     
   5 C5             1.2757    -0.3480     0.3533 C.2     
   6 N6             1.7369    -1.6289     0.5899 N.pl3   
   7 C7            -1.1021    -0.8570    -0.0114 C.ar    
   8 N8             1.6572     3.1284     0.0030 N.pl3   
   9 C9             3.0186     3.4258     0.0971 C.ar    
  10 C10            3.9733     2.5006    -0.3226 C.ar    
  11 C11            3.4377     4.6504     0.6049 C.ar    
  12 N12            4.7189     4.9388     0.6965 N.ar    
  13 C13            5.6556     4.0814     0.3118 C.ar    
  14 C14            5.3099     2.8370    -0.2118 C.ar    
  15 N15           -0.9224    -2.1323    -0.3211 N.ar    
  16 N16           -1.8996    -2.9606    -0.4290 N.ar    
  17 C17           -3.1533    -2.5833    -0.2362 C.ar    
  18 C18           -3.4375    -1.2607     0.1155 C.ar    
  19 C19           -2.3901    -0.3710     0.2277 C.ar    
  20 C20           -4.2852    -3.5224    -0.4128 C.ar    
  21 C21           -5.3709    -3.1303    -1.1975 C.ar    
  22 C22           -5.3390    -1.7933    -1.8858 C.3     
  23 C23           -5.6287    -0.6570    -0.9089 C.3     
  24 C24           -4.8550    -0.8519     0.3923 C.3     
  25 C25           -4.2797    -4.7748     0.1913 C.ar    
  26 C26           -5.3612    -5.6184     0.0259 C.ar    
  27 C27           -6.4444    -5.2176    -0.7349 C.ar    
  28 C28           -6.4497    -3.9753    -1.3454 C.ar    
  29 C29            7.0860     4.4535     0.4353 C.ar    
  30 C30            7.4419     5.6968     0.9526 C.ar    
  31 C31            8.0779     3.5577     0.0393 C.ar    
  32 C32            9.4091     3.9056     0.1548 C.ar    
  33 C33            9.7633     5.1407     0.6629 C.ar    
  34 C34            8.7812     6.0385     1.0653 C.ar    
  35 N35            9.1431     7.2865     1.5781 N.pl3   
  36 H36            2.6770    -1.7793     0.7759 H       
  37 H37            1.1207    -2.3778     0.5700 H       
  38 H38            1.0121     3.8424    -0.1193 H       
  39 H39            3.6759     1.5433    -0.7245 H       
  40 H40            2.7035     5.3736     0.9278 H       
  41 H41            6.0762     2.1427    -0.5231 H       
  42 H42           -2.5596     0.6646     0.4829 H       
  43 H43           -4.3534    -1.6424    -2.3261 H       
  44 H44           -6.0877    -1.7821    -2.6779 H       
  45 H45           -5.3354     0.2898    -1.3624 H       
  46 H46           -6.6966    -0.6342    -0.6914 H       
  47 H47           -5.3416    -1.6255     0.9863 H       
  48 H48           -4.8555     0.0828     0.9531 H       
  49 H49           -3.4342    -5.0865     0.7866 H       
  50 H50           -5.3606    -6.5929     0.4914 H       
  51 H51           -7.2909    -5.8777    -0.8534 H       
  52 H52           -7.2991    -3.6682    -1.9375 H       
  53 H53            6.6772     6.3927     1.2646 H       
  54 H54            7.8050     2.5911    -0.3577 H       
  55 H55           10.1759     3.2100    -0.1527 H       
  56 H56           10.8060     5.4076     0.7518 H       
  57 H57           10.0799     7.5268     1.6535 H       
  58 H58            8.4577     7.9128     1.8588 H       
@<TRIPOS>BOND
   1    1    2 1
   2    1    3 2
   3    2    7 1
   4    2    5 1
   5    3    4 1
   6    3    8 1
   7    4    5 2
   8    5    6 1
   9    6   36 1
  10    6   37 1
  11    7   15 ar
  12    7   19 ar
  13    8    9 1
  14    8   38 1
  15    9   10 ar
  16    9   11 ar
  17   10   14 ar
  18   10   39 1
  19   11   12 ar
  20   11   40 1
  21   12   13 ar
  22   13   14 ar
  23   13   29 1
  24   14   41 1
  25   15   16 ar
  26   16   17 ar
  27   17   18 ar
  28   17   20 1
  29   18   19 ar
  30   18   24 1
  31   19   42 1
  32   20   21 ar
  33   20   25 ar
  34   21   22 1
  35   21   28 ar
  36   22   23 1
  37   22   43 1
  38   22   44 1
  39   23   24 1
  40   23   45 1
  41   23   46 1
  42   24   47 1
  43   24   48 1
  44   25   26 ar
  45   25   49 1
  46   26   27 ar
  47   26   50 1
  48   27   28 ar
  49   27   51 1
  50   28   52 1
  51   29   30 ar
  52   29   31 ar
  53   30   34 ar
  54   30   53 1
  55   31   32 ar
  56   31   54 1
  57   32   33 ar
  58   32   55 1
  59   33   34 ar
  60   33   56 1
  61   34   35 1
  62   35   57 1
  63   35   58 1

#	End of record

