#	Name: ASD00069375
#	Creating user name:	WinNT
#	Creation time:	15. 06. 2019 18:29

#	Modifying user name:	WinNT
#	Modification time:	15. 06. 2019 18:29

#	Program:	/corina/corina34_cracker 3.40 0067  02.08.2006

@<TRIPOS>MOLECULE
ASD00069375
  86   91    0    0    0
SMALL
NO_CHARGES


@<TRIPOS>ATOM
   1 C1            -0.0450     1.2827    -0.1812 C.2     
   2 C2            -0.0076    -0.0941    -0.1578 C.2     
   3 N3             1.2364     1.7104    -0.1677 N.pl3   
   4 C4             2.0378     0.6027    -0.1365 C.2     
   5 N5             1.2782    -0.4690    -0.1309 N.2     
   6 C6            -1.1813    -0.9997    -0.1615 C.ar    
   7 N7            -2.4185    -0.5030    -0.1896 N.ar    
   8 C8            -1.0071    -2.3822    -0.1417 C.ar    
   9 C9            -2.1406    -3.1926    -0.1466 C.ar    
  10 N10           -3.3430    -2.6239    -0.1700 N.ar    
  11 C11           -3.4710    -1.3057    -0.1936 C.ar    
  12 C12            3.5121     0.6102    -0.1126 C.2     
  13 N13            4.1915    -0.5535    -0.0824 N.am    
  14 O14            4.1151     1.6663    -0.1200 O.2     
  15 C15            5.5884    -0.5514    -0.1800 C.ar    
  16 C16            6.3391    -1.5082     0.5041 C.ar    
  17 C17            6.2295     0.3979    -0.9613 C.ar    
  18 C18            7.6089     0.3981    -1.0562 C.ar    
  19 C19            8.3531    -0.5460    -0.3735 C.ar    
  20 C20            7.7221    -1.5003     0.4030 C.ar    
  21 N21            5.6985    -2.4721     1.2898 N.3     
  22 C22            5.0354    -1.8532     2.4460 C.3     
  23 C23            4.2820    -2.9274     3.2340 C.3     
  24 N24            5.2265    -3.9669     3.6664 N.3     
  25 C25            5.8896    -4.5858     2.5102 C.3     
  26 C26            6.6430    -3.5116     1.7223 C.3     
  27 N27           -2.0169    -4.5729    -0.1279 N.3     
  28 C28           -1.2215    -5.0150     1.0267 C.3     
  29 C29           -1.4320    -5.0665    -1.3831 C.3     
  30 C30           -1.3688    -6.5957    -1.3437 C.3     
  31 O31           -0.6184    -7.0074    -0.1980 O.3     
  32 C32           -1.1604    -6.5446     1.0419 C.3     
  33 C33           -0.2813    -7.0019     2.1773 C.2     
  34 N34           -0.6507    -6.7676     3.4521 N.am    
  35 O35            0.7586    -7.5808     1.9439 O.2     
  36 C36            0.2039    -7.2122     4.5559 C.3     
  37 C37           -0.0583    -6.3417     5.7865 C.3     
  38 C38           -0.1100    -8.6724     4.8877 C.3     
  39 C39            0.7826    -9.1366     6.0405 C.3     
  40 C40            0.5203    -8.2661     7.2711 C.3     
  41 C41            0.8342    -6.8059     6.9392 C.3     
  42 C42           -2.3005    -4.6212    -2.5614 C.3     
  43 N43           -4.7395    -0.7527    -0.2175 N.pl3   
  44 C44           -4.9036     0.7029    -0.2439 C.3     
  45 H45           -0.9295     1.9018    -0.2096 H       
  46 H46            1.5336     2.6337    -0.1786 H       
  47 H47           -0.0178    -2.8149    -0.1232 H       
  48 H48            3.7128    -1.3924     0.0069 H       
  49 H49            5.6514     1.1370    -1.4960 H       
  50 H50            8.1065     1.1378    -1.6657 H       
  51 H51            9.4303    -0.5416    -0.4514 H       
  52 H52            8.3066    -2.2362     0.9353 H       
  53 H53            5.7833    -1.3884     3.0884 H       
  54 H54            4.3320    -1.0960     2.0995 H       
  55 H55            3.8132    -2.4756     4.1081 H       
  56 H56            3.5158    -3.3734     2.5998 H       
  57 H57            5.9037    -3.5932     4.3144 H       
  58 H58            6.5930    -5.3430     2.8567 H       
  59 H59            5.1417    -5.0506     1.8678 H       
  60 H60            7.1118    -3.9634     0.8481 H       
  61 H61            7.4092    -3.0657     2.3565 H       
  62 H62           -0.2120    -4.6112     0.9493 H       
  63 H63           -1.6866    -4.6601     1.9464 H       
  64 H64           -0.4258    -4.6635    -1.4990 H       
  65 H65           -2.3791    -7.0002    -1.2818 H       
  66 H66           -0.8836    -6.9633    -2.2479 H       
  67 H67           -2.1646    -6.9477     1.1732 H       
  68 H68           -1.4824    -6.3047     3.6388 H       
  69 H69            1.2503    -7.1228     4.2639 H       
  70 H70            0.1653    -5.3014     5.5500 H       
  71 H71           -1.1047    -6.4311     6.0784 H       
  72 H72           -1.1563    -8.7618     5.1797 H       
  73 H73            0.0769    -9.2925     4.0110 H       
  74 H74            0.5589   -10.1769     6.2769 H       
  75 H75            1.8289    -9.0472     5.7485 H       
  76 H76           -0.5261    -8.3555     7.5630 H       
  77 H77            1.1562    -8.5969     8.0923 H       
  78 H78            1.8806    -6.7165     6.6472 H       
  79 H79            0.6473    -6.1858     7.8159 H       
  80 H80           -2.3482    -3.5325    -2.5865 H       
  81 H81           -1.8663    -4.9875    -3.4916 H       
  82 H82           -3.3057    -5.0264    -2.4453 H       
  83 H83           -5.5198    -1.3288    -0.2168 H       
  84 H84           -4.4235     1.1066    -1.1353 H       
  85 H85           -5.9654     0.9486    -0.2602 H       
  86 H86           -4.4440     1.1365     0.6443 H       
@<TRIPOS>BOND
   1    1    2 2
   2    1    3 1
   3    1   45 1
   4    2    6 1
   5    2    5 1
   6    3    4 1
   7    3   46 1
   8    4    5 2
   9    4   12 1
  10    6    7 ar
  11    6    8 ar
  12    7   11 ar
  13    8    9 ar
  14    8   47 1
  15    9   10 ar
  16    9   27 1
  17   10   11 ar
  18   11   43 1
  19   12   13 am
  20   12   14 2
  21   13   15 1
  22   13   48 1
  23   15   16 ar
  24   15   17 ar
  25   16   21 1
  26   16   20 ar
  27   17   18 ar
  28   17   49 1
  29   18   19 ar
  30   18   50 1
  31   19   20 ar
  32   19   51 1
  33   20   52 1
  34   21   22 1
  35   21   26 1
  36   22   23 1
  37   22   53 1
  38   22   54 1
  39   23   24 1
  40   23   55 1
  41   23   56 1
  42   24   25 1
  43   24   57 1
  44   25   26 1
  45   25   58 1
  46   25   59 1
  47   26   60 1
  48   26   61 1
  49   27   28 1
  50   27   29 1
  51   28   32 1
  52   28   62 1
  53   28   63 1
  54   29   30 1
  55   29   42 1
  56   29   64 1
  57   30   31 1
  58   30   65 1
  59   30   66 1
  60   31   32 1
  61   32   33 1
  62   32   67 1
  63   33   34 am
  64   33   35 2
  65   34   36 1
  66   34   68 1
  67   36   37 1
  68   36   38 1
  69   36   69 1
  70   37   41 1
  71   37   70 1
  72   37   71 1
  73   38   39 1
  74   38   72 1
  75   38   73 1
  76   39   40 1
  77   39   74 1
  78   39   75 1
  79   40   41 1
  80   40   76 1
  81   40   77 1
  82   41   78 1
  83   41   79 1
  84   42   80 1
  85   42   81 1
  86   42   82 1
  87   43   44 1
  88   43   83 1
  89   44   84 1
  90   44   85 1
  91   44   86 1

#	End of record

