#	Name: ASD02039197
#	Creating user name:	WinNT
#	Creation time:	15. 06. 2019 20:17

#	Modifying user name:	WinNT
#	Modification time:	15. 06. 2019 20:17

#	Program:	/corina/corina34_cracker 3.40 0067  02.08.2006

@<TRIPOS>MOLECULE
ASD02039197
  41   44    0    0    0
SMALL
NO_CHARGES


@<TRIPOS>ATOM
   1 N1             0.0020     1.2625     0.3690 N.2     
   2 C2             0.0063    -0.0135     0.0888 C.2     
   3 N3             1.2922    -0.3754    -0.1077 N.2     
   4 C4             1.9959     0.7160     0.0675 C.2     
   5 O5             1.1350     1.6954     0.3607 O.3     
   6 C6             3.4937     0.8428    -0.0408 C.3     
   7 N7            -1.1052    -0.8435     0.0085 N.pl3   
   8 C8            -2.3896    -0.3053     0.1291 C.ar    
   9 C9            -2.6362     1.0027    -0.2681 C.ar    
  10 C10           -3.9072     1.5316    -0.1474 C.ar    
  11 C11           -4.9333     0.7591     0.3691 C.ar    
  12 C12           -4.6900    -0.5428     0.7654 C.ar    
  13 C13           -3.4231    -1.0792     0.6411 C.ar    
  14 C14           -6.3182     1.3387     0.5000 C.3     
  15 C15            3.8674     1.1879    -1.4593 C.ar    
  16 C16            3.9577     2.5207    -1.8423 C.ar    
  17 C17            4.2941     2.8596    -3.1220 C.ar    
  18 C18            4.5514     1.8615    -4.0588 C.ar    
  19 C19            4.4609     0.5103    -3.6725 C.ar    
  20 C20            4.1193     0.1887    -2.3540 C.ar    
  21 N21            4.9026     1.8704    -5.3834 N.pl3   
  22 N22            5.0329     0.5516    -5.8307 N.2     
  23 C23            4.7823    -0.2775    -4.8580 C.2     
  24 C24           -7.0642     1.1818    -0.8266 C.3     
  25 Cl25          -4.2172     3.1662    -0.6433 Cl      
  26 H26            3.8410     1.6301     0.6283 H       
  27 H27            3.9594    -0.1025     0.2379 H       
  28 H28           -0.9898    -1.7964    -0.1313 H       
  29 H29           -1.8356     1.6057    -0.6704 H       
  30 H30           -5.4925    -1.1428     1.1683 H       
  31 H31           -3.2342    -2.0965     0.9507 H       
  32 H32           -6.8597     0.8120     1.2858 H       
  33 H33           -6.2470     2.3963     0.7540 H       
  34 H34            3.7591     3.2980    -1.1194 H       
  35 H35            4.3602     3.8993    -3.4070 H       
  36 H36            4.0474    -0.8446    -2.0484 H       
  37 H37            5.0387     2.6642    -5.9241 H       
  38 H38            4.8083    -1.3555    -4.9180 H       
  39 H39           -7.1354     0.1242    -1.0805 H       
  40 H40           -8.0659     1.6010    -0.7319 H       
  41 H41           -6.5227     1.7085    -1.6124 H       
@<TRIPOS>BOND
   1    1    2 2
   2    1    5 1
   3    2    3 1
   4    2    7 1
   5    3    4 2
   6    4    5 1
   7    4    6 1
   8    6   15 1
   9    6   26 1
  10    6   27 1
  11    7    8 1
  12    7   28 1
  13    8    9 ar
  14    8   13 ar
  15    9   10 ar
  16    9   29 1
  17   10   11 ar
  18   10   25 1
  19   11   12 ar
  20   11   14 1
  21   12   13 ar
  22   12   30 1
  23   13   31 1
  24   14   24 1
  25   14   32 1
  26   14   33 1
  27   15   16 ar
  28   15   20 ar
  29   16   17 ar
  30   16   34 1
  31   17   18 ar
  32   17   35 1
  33   18   19 ar
  34   18   21 1
  35   19   20 ar
  36   19   23 1
  37   20   36 1
  38   21   22 1
  39   21   37 1
  40   22   23 2
  41   23   38 1
  42   24   39 1
  43   24   40 1
  44   24   41 1

#	End of record

