#	Name: ASD01912294
#	Creating user name:	WinNT
#	Creation time:	15. 06. 2019 19:59

#	Modifying user name:	WinNT
#	Modification time:	15. 06. 2019 19:59

#	Program:	/corina/corina34_cracker 3.40 0067  02.08.2006

@<TRIPOS>MOLECULE
ASD01912294
  50   52    0    0    0
SMALL
NO_CHARGES


@<TRIPOS>ATOM
   1 C1            -0.5248     1.7311     0.0876 C.ar    
   2 C2            -0.5683     0.3487     0.1165 C.ar    
   3 C3             0.6184    -0.3708     0.1543 C.ar    
   4 C4             1.8135     0.3253     0.1617 C.ar    
   5 C5             1.7851     1.7222     0.1311 C.ar    
   6 N6             0.6252     2.3725     0.0953 N.ar    
   7 C7             3.0132     2.4587     0.1382 C.1     
   8 C8             4.0200     3.0625     0.1441 C.1     
   9 C9             5.2481     3.7989     0.1513 C.2     
  10 N10            5.2059     7.6234    -1.0432 N.am    
  11 C11            6.4854     6.9027    -1.0542 C.3     
  12 C12            6.5128     5.9270     0.1291 C.3     
  13 C13            5.2264     5.1308     0.1221 C.2     
  14 C14            3.9146     5.8836     0.0818 C.3     
  15 C15            3.9524     6.8604    -1.1003 C.3     
  16 S16            5.1767     9.2771    -0.9604 S.o2    
  17 O17            3.9096     9.6296    -0.4224 O.2     
  18 O18            6.4082     9.6711    -0.3709 O.2     
  19 C19            5.2008     9.8827    -2.6149 C.ar    
  20 C20            4.0133    10.1004    -3.2886 C.ar    
  21 C21            4.0322    10.5754    -4.5865 C.ar    
  22 C22            5.2385    10.8332    -5.2108 C.ar    
  23 C23            6.4256    10.6164    -4.5369 C.ar    
  24 C24            6.4066    10.1454    -3.2372 C.ar    
  25 N25            2.7608    10.8075    -5.3081 N.pl3   
  26 O26            2.6535    11.7579    -6.0623 O.2     
  27 O27            1.8221    10.0482    -5.1478 O.2     
  28 C28            5.2591    11.3501    -6.6262 C.3     
  29 C29           -1.8116     2.5140     0.0402 C.3     
  30 H30           -1.5175    -0.1664     0.1102 H       
  31 H31            0.6085    -1.4505     0.1778 H       
  32 H32            2.7550    -0.2030     0.1911 H       
  33 H33            6.1919     3.2748     0.1803 H       
  34 H34            6.5845     6.3482    -1.9874 H       
  35 H35            7.3062     7.6139    -0.9605 H       
  36 H36            7.3627     5.2520     0.0286 H       
  37 H37            6.5944     6.4842     1.0624 H       
  38 H38            3.0919     5.1806    -0.0491 H       
  39 H39            3.7805     6.4372     1.0111 H       
  40 H40            3.1055     7.5437    -1.0370 H       
  41 H41            3.9060     6.3034    -2.0362 H       
  42 H42            3.0710     9.8990    -2.8010 H       
  43 H43            7.3679    10.8174    -5.0247 H       
  44 H44            7.3341     9.9795    -2.7093 H       
  45 H45            5.1409    12.4337    -6.6190 H       
  46 H46            6.2091    11.0913    -7.0937 H       
  47 H47            4.4421    10.8993    -7.1896 H       
  48 H48           -2.1461     2.7250     1.0559 H       
  49 H49           -1.6471     3.4518    -0.4904 H       
  50 H50           -2.5725     1.9313    -0.4792 H       
@<TRIPOS>BOND
   1    1    2 ar
   2    1    6 ar
   3    1   29 1
   4    2    3 ar
   5    2   30 1
   6    3    4 ar
   7    3   31 1
   8    4    5 ar
   9    4   32 1
  10    5    6 ar
  11    5    7 1
  12    7    8 3
  13    8    9 1
  14    9   13 2
  15    9   33 1
  16   10   11 1
  17   10   15 1
  18   10   16 am
  19   11   12 1
  20   11   34 1
  21   11   35 1
  22   12   13 1
  23   12   36 1
  24   12   37 1
  25   13   14 1
  26   14   15 1
  27   14   38 1
  28   14   39 1
  29   15   40 1
  30   15   41 1
  31   16   17 2
  32   16   18 2
  33   16   19 1
  34   19   20 ar
  35   19   24 ar
  36   20   21 ar
  37   20   42 1
  38   21   22 ar
  39   21   25 1
  40   22   23 ar
  41   22   28 1
  42   23   24 ar
  43   23   43 1
  44   24   44 1
  45   25   26 2
  46   25   27 2
  47   28   45 1
  48   28   46 1
  49   28   47 1
  50   29   48 1
  51   29   49 1
  52   29   50 1

#	End of record

