#	Name: ASD06020165
#	Creating user name:	WinNT
#	Creation time:	15. 06. 2019 21:04

#	Modifying user name:	WinNT
#	Modification time:	15. 06. 2019 21:04

#	Program:	/corina/corina34_cracker 3.40 0067  02.08.2006

@<TRIPOS>MOLECULE
ASD06020165
  24   26    0    0    0
SMALL
NO_CHARGES


@<TRIPOS>ATOM
   1 C1            -0.0168     1.3863     0.0097 C.ar    
   2 C2             0.0021    -0.0041     0.0020 C.ar    
   3 C3             1.2311    -0.6800    -0.0134 C.ar    
   4 C4             2.4022     0.1146    -0.0208 C.ar    
   5 C5             2.2891     1.4723    -0.0128 C.ar    
   6 N6             1.1091     2.0706     0.0026 N.ar    
   7 S7            -1.2875    -1.2020     0.0080 S.3     
   8 C8            -0.0982    -2.4978    -0.0104 C.2     
   9 N9             1.0979    -2.0080    -0.0193 N.2     
  10 C10           -0.4203    -3.9399    -0.0147 C.ar    
  11 C11            0.6053    -4.8882    -0.0297 C.ar    
  12 C12            0.2968    -6.2340    -0.0330 C.ar    
  13 C13           -1.0243    -6.6451    -0.0216 C.ar    
  14 C14           -2.0456    -5.7131    -0.0072 C.ar    
  15 C15           -1.7526    -4.3620     0.0022 C.ar    
  16 F16           -2.7512    -3.4523     0.0224 F       
  17 Cl17           2.2638    -4.3758    -0.0446 Cl      
  18 Br18           4.1083    -0.7007    -0.0409 Br      
  19 O19            1.0548     3.4856     0.0108 O.3     
  20 H20           -0.9617     1.9094     0.0170 H       
  21 H21            3.1851     2.0753    -0.0181 H       
  22 H22            1.0890    -6.9679    -0.0450 H       
  23 H23           -1.2590    -7.6993    -0.0244 H       
  24 H24           -3.0745    -6.0413     0.0009 H       
@<TRIPOS>BOND
   1    1    2 ar
   2    1    6 ar
   3    1   20 1
   4    2    3 ar
   5    2    7 1
   6    3    4 ar
   7    3    9 1
   8    4    5 ar
   9    4   18 1
  10    5    6 ar
  11    5   21 1
  12    6   19 1
  13    7    8 1
  14    8    9 2
  15    8   10 1
  16   10   11 ar
  17   10   15 ar
  18   11   12 ar
  19   11   17 1
  20   12   13 ar
  21   12   22 1
  22   13   14 ar
  23   13   23 1
  24   14   15 ar
  25   14   24 1
  26   15   16 1

#	End of record

