#	Name: ASD03092405
#	Creating user name:	WinNT
#	Creation time:	15. 06. 2019 20:32

#	Modifying user name:	WinNT
#	Modification time:	15. 06. 2019 20:32

#	Program:	/corina/corina34_cracker 3.40 0067  02.08.2006

@<TRIPOS>MOLECULE
ASD03092405
  46   49    0    0    0
SMALL
NO_CHARGES


@<TRIPOS>ATOM
   1 O1             0.8904     1.0033    -0.3452 O.3     
   2 N2             0.7498    -0.1961    -0.2857 N.2     
   3 C3             1.9049    -0.8119    -0.2407 C.2     
   4 C4             2.8975     0.2066    -0.2810 C.2     
   5 C5             2.1838     1.3542    -0.3479 C.2     
   6 C6             2.1323    -2.2757    -0.1633 C.2     
   7 O7             3.2651    -2.7134    -0.1273 O.2     
   8 N8             1.0823    -3.1201    -0.1331 N.am    
   9 C9             1.3069    -4.5657    -0.0568 C.3     
  10 S10           -2.1410    -6.4560     0.6760 S.3     
  11 C11           -1.8185    -6.1980    -0.9828 C.2     
  12 N12           -0.6847    -5.5812    -1.1308 N.2     
  13 C13           -0.0200    -5.2798    -0.0365 C.2     
  14 C14           -0.6269    -5.6643     1.1058 C.2     
  15 C15            0.3988    -6.2705     4.6673 C.ar    
  16 C16           -0.0903    -6.5081     3.4011 C.ar    
  17 C17           -0.1132    -5.4576     2.4739 C.ar    
  18 C18            0.3658    -4.2055     2.8819 C.ar    
  19 C19            0.8368    -4.0577     4.1685 C.ar    
  20 N20            0.8407    -5.0746     5.0104 N.ar    
  21 N21           -2.6461    -6.5903    -2.0191 N.3     
  22 C22           -3.8490    -7.2627    -1.5071 C.3     
  23 C23           -4.7626    -7.6257    -2.6807 C.3     
  24 O24           -4.0395    -8.4409    -3.6069 O.3     
  25 C25           -2.8621    -7.8167    -4.1260 C.3     
  26 C26           -1.9292    -7.4556    -2.9671 C.3     
  27 C27            2.7361     2.7549    -0.4133 C.3     
  28 H28            3.9711     0.0907    -0.2619 H       
  29 H29            0.1779    -2.7706    -0.1619 H       
  30 H30            1.8811    -4.8906    -0.9244 H       
  31 H31            1.8595    -4.8000     0.8531 H       
  32 H32            0.4165    -7.0724     5.3905 H       
  33 H33           -0.4499    -7.4890     3.1274 H       
  34 H34            0.3663    -3.3693     2.1984 H       
  35 H35            1.2081    -3.0967     4.4926 H       
  36 H36           -3.5607    -8.1699    -0.9761 H       
  37 H37           -4.3778    -6.5947    -0.8272 H       
  38 H38           -5.6286    -8.1751    -2.3114 H       
  39 H39           -5.0941    -6.7149    -3.1792 H       
  40 H40           -2.3536    -8.5041    -4.8020 H       
  41 H41           -3.1384    -6.9114    -4.6666 H       
  42 H42           -1.0567    -6.9284    -3.3529 H       
  43 H43           -1.6102    -8.3659    -2.4594 H       
  44 H44            1.9131     3.4681    -0.4592 H       
  45 H45            3.3371     2.9503     0.4748 H       
  46 H46            3.3574     2.8593    -1.3027 H       
@<TRIPOS>BOND
   1    1    2 1
   2    1    5 1
   3    2    3 2
   4    3    4 1
   5    3    6 1
   6    4    5 2
   7    4   28 1
   8    5   27 1
   9    6    7 2
  10    6    8 am
  11    8    9 1
  12    8   29 1
  13    9   13 1
  14    9   30 1
  15    9   31 1
  16   10   11 1
  17   10   14 1
  18   11   12 2
  19   11   21 1
  20   12   13 1
  21   13   14 2
  22   14   17 1
  23   15   16 ar
  24   15   20 ar
  25   15   32 1
  26   16   17 ar
  27   16   33 1
  28   17   18 ar
  29   18   19 ar
  30   18   34 1
  31   19   20 ar
  32   19   35 1
  33   21   22 1
  34   21   26 1
  35   22   23 1
  36   22   36 1
  37   22   37 1
  38   23   24 1
  39   23   38 1
  40   23   39 1
  41   24   25 1
  42   25   26 1
  43   25   40 1
  44   25   41 1
  45   26   42 1
  46   26   43 1
  47   27   44 1
  48   27   45 1
  49   27   46 1

#	End of record

