#	Name: ASD09740685
#	Creating user name:	WinNT
#	Creation time:	15. 06. 2019 21:23

#	Modifying user name:	WinNT
#	Modification time:	15. 06. 2019 21:23

#	Program:	/corina/corina34_cracker 3.40 0067  02.08.2006

@<TRIPOS>MOLECULE
ASD09740685
  69   72    0    0    0
SMALL
NO_CHARGES


@<TRIPOS>ATOM
   1 C1             1.8198    -2.1732     1.6649 C.2     
   2 C2             2.0679    -0.7545     1.2214 C.3     
   3 O3             1.1387    -2.9072     0.9887 O.2     
   4 O4             2.3600    -2.6231     2.8083 O.3     
   5 N5             1.3805    -0.5129    -0.0495 N.am    
   6 C6             2.1097    -0.6443    -1.3133 C.3     
   7 C7             3.2047     0.4387    -1.4149 C.3     
   8 C8             4.4390    -0.2844    -0.8351 C.3     
   9 C9             4.1876    -1.7562    -1.0825 C.ar    
  10 C10            5.0695    -2.8413    -1.0678 C.ar    
  11 C11            4.5954    -4.1265    -1.3303 C.ar    
  12 C12            3.2570    -4.3203    -1.6035 C.ar    
  13 C13            2.3893    -3.2445    -1.6163 C.ar    
  14 C14            2.8518    -1.9633    -1.3569 C.ar    
  15 S15            7.5470    -1.4316    -1.5411 S.3     
  16 C16            8.8969    -1.9838    -0.5533 C.2     
  17 N17            8.4945    -2.9522     0.2212 N.2     
  18 C18            7.2388    -3.3120     0.1264 C.2     
  19 C19            6.5021    -2.6266    -0.7750 C.2     
  20 C20           10.2687    -1.4365    -0.5964 C.ar    
  21 C21           11.2537    -1.9596     0.2379 C.ar    
  22 C22           12.5461    -1.4394     0.1930 C.ar    
  23 C23           12.8450    -0.3926    -0.6923 C.ar    
  24 C24           11.8559     0.1208    -1.5189 C.ar    
  25 C25           10.5794    -0.3974    -1.4787 C.ar    
  26 O26           14.1010     0.1178    -0.7398 O.3     
  27 C27           14.3065     1.2587    -1.5753 C.3     
  28 C28           15.5120     2.0523    -1.0674 C.3     
  29 C29           14.5668     0.7991    -3.0113 C.3     
  30 C30           13.5648    -1.9709     1.0475 C.1     
  31 N31           14.3730    -2.3925     1.7254 N.1     
  32 C32            0.0772    -0.1696    -0.0562 C.2     
  33 O33           -0.4694     0.1205    -1.1019 O.2     
  34 O34           -0.6192    -0.1482     1.0959 O.3     
  35 C35           -2.0184     0.2308     1.0135 C.3     
  36 C36           -2.7598    -0.7503     0.1032 C.3     
  37 C37           -2.6390     0.1978     2.4116 C.3     
  38 C38           -2.1309     1.6443     0.4389 C.3     
  39 H39            1.6882    -0.0661     1.9765 H       
  40 H40            3.1385    -0.5964     1.0912 H       
  41 H41            2.1727    -3.5402     3.0514 H       
  42 H42            1.4234    -0.5685    -2.1566 H       
  43 H43            3.3742     0.7223    -2.4537 H       
  44 H44            2.9464     1.3089    -0.8116 H       
  45 H45            5.3432     0.0370    -1.3520 H       
  46 H46            4.5240    -0.0896     0.2340 H       
  47 H47            5.2737    -4.9669    -1.3202 H       
  48 H48            2.8867    -5.3141    -1.8072 H       
  49 H49            1.3427    -3.4030    -1.8305 H       
  50 H50            6.8200    -4.1045     0.7288 H       
  51 H51           11.0170    -2.7651     0.9173 H       
  52 H52           12.0881     0.9267    -2.1993 H       
  53 H53            9.8152     0.0037    -2.1279 H       
  54 H54           13.4191     1.8911    -1.5515 H       
  55 H55           16.3995     1.4199    -1.0913 H       
  56 H56           15.6688     2.9226    -1.7047 H       
  57 H57           15.3266     2.3797    -0.0445 H       
  58 H58           13.7080     0.2338    -3.3731 H       
  59 H59           14.7235     1.6694    -3.6486 H       
  60 H60           15.4543     0.1667    -3.0351 H       
  61 H61           -2.6797    -1.7573     0.5126 H       
  62 H62           -3.8102    -0.4657     0.0413 H       
  63 H63           -2.3177    -0.7268    -0.8928 H       
  64 H64           -2.1108     0.8968     3.0602 H       
  65 H65           -3.6893     0.4824     2.3498 H       
  66 H66           -2.5588    -0.8092     2.8210 H       
  67 H67           -1.6888     1.6679    -0.5572 H       
  68 H68           -3.1813     1.9289     0.3770 H       
  69 H69           -1.6027     2.3433     1.0874 H       
@<TRIPOS>BOND
   1    1    2 1
   2    1    3 2
   3    1    4 1
   4    2    5 1
   5    2   39 1
   6    2   40 1
   7    4   41 1
   8    5   32 am
   9    5    6 1
  10    6    7 1
  11    6   14 1
  12    6   42 1
  13    7    8 1
  14    7   43 1
  15    7   44 1
  16    8    9 1
  17    8   45 1
  18    8   46 1
  19    9   10 ar
  20    9   14 ar
  21   10   11 ar
  22   10   19 1
  23   11   12 ar
  24   11   47 1
  25   12   13 ar
  26   12   48 1
  27   13   14 ar
  28   13   49 1
  29   15   16 1
  30   15   19 1
  31   16   17 2
  32   16   20 1
  33   17   18 1
  34   18   19 2
  35   18   50 1
  36   20   21 ar
  37   20   25 ar
  38   21   22 ar
  39   21   51 1
  40   22   23 ar
  41   22   30 1
  42   23   24 ar
  43   23   26 1
  44   24   25 ar
  45   24   52 1
  46   25   53 1
  47   26   27 1
  48   27   28 1
  49   27   29 1
  50   27   54 1
  51   28   55 1
  52   28   56 1
  53   28   57 1
  54   29   58 1
  55   29   59 1
  56   29   60 1
  57   30   31 3
  58   32   33 2
  59   32   34 1
  60   34   35 1
  61   35   36 1
  62   35   38 1
  63   35   37 1
  64   36   61 1
  65   36   62 1
  66   36   63 1
  67   37   64 1
  68   37   65 1
  69   37   66 1
  70   38   67 1
  71   38   68 1
  72   38   69 1

#	End of record

