#	Name: ASD03081151
#	Creating user name:	WinNT
#	Creation time:	15. 06. 2019 20:27

#	Modifying user name:	WinNT
#	Modification time:	15. 06. 2019 20:27

#	Program:	/corina/corina34_cracker 3.40 0067  02.08.2006

@<TRIPOS>MOLECULE
ASD03081151
  29   32    0    0    0
SMALL
NO_CHARGES


@<TRIPOS>ATOM
   1 O1            -0.0144     1.2085     0.0087 O.3     
   2 N2             0.0021    -0.0041     0.0020 N.2     
   3 C3             1.2354    -0.4421    -0.0121 C.2     
   4 N4             2.0460     0.6369    -0.0141 N.2     
   5 C5             1.2410     1.6830    -0.0008 C.2     
   6 C6             2.4404    -4.5010    -0.0438 C.2     
   7 C7             3.4229    -3.4887    -0.0480 C.2     
   8 C8             3.0403    -2.1862    -0.0375 C.2     
   9 C9             1.6633    -1.8628    -0.0231 C.2     
  10 C10            0.7307    -2.8541    -0.0188 C.2     
  11 N11            1.1118    -4.1620    -0.0292 N.pl3   
  12 N12            2.5260    -5.8235    -0.0461 N.2     
  13 C13            1.2958    -6.3429    -0.0393 C.2     
  14 C14            0.4003    -5.3318    -0.0280 C.2     
  15 C15            2.9946     3.4578    -0.0085 C.ar    
  16 C16            1.6449     3.1044     0.0030 C.ar    
  17 C17            0.6788     4.1186     0.0177 C.ar    
  18 C18            1.1075     5.4327     0.0202 C.ar    
  19 C19            2.4678     5.7026     0.0082 C.ar    
  20 N20            3.3559     4.7242    -0.0060 N.ar    
  21 F21            2.8914     6.9854     0.0106 F       
  22 H22            4.4713    -3.7479    -0.0590 H       
  23 H23            3.7827    -1.4017    -0.0403 H       
  24 H24           -0.3194    -2.6019    -0.0074 H       
  25 H25            1.0567    -7.3961    -0.0392 H       
  26 H26           -0.6753    -5.4281    -0.0175 H       
  27 H27            3.7499     2.6859    -0.0154 H       
  28 H28           -0.3744     3.8798     0.0266 H       
  29 H29            0.3909     6.2406     0.0311 H       
@<TRIPOS>BOND
   1    1    2 1
   2    1    5 1
   3    2    3 2
   4    3    4 1
   5    3    9 1
   6    4    5 2
   7    5   16 1
   8    6    7 1
   9    6   11 1
  10    6   12 2
  11    7    8 2
  12    7   22 1
  13    8    9 1
  14    8   23 1
  15    9   10 2
  16   10   11 1
  17   10   24 1
  18   11   14 1
  19   12   13 1
  20   13   14 2
  21   13   25 1
  22   14   26 1
  23   15   16 ar
  24   15   20 ar
  25   15   27 1
  26   16   17 ar
  27   17   18 ar
  28   17   28 1
  29   18   19 ar
  30   18   29 1
  31   19   20 ar
  32   19   21 1

#	End of record

