#	Name: ASD03730941
#	Creating user name:	WinNT
#	Creation time:	15. 06. 2019 20:44

#	Modifying user name:	WinNT
#	Modification time:	15. 06. 2019 20:44

#	Program:	/corina/corina34_cracker 3.40 0067  02.08.2006

@<TRIPOS>MOLECULE
ASD03730941
  59   65    0    0    0
SMALL
NO_CHARGES


@<TRIPOS>ATOM
   1 C1            -0.0182     1.4735     0.0147 C.2     
   2 C2             0.0015    -0.0045     0.0116 C.ar    
   3 C3             1.2179    -0.6895     0.0010 C.ar    
   4 C4             1.2291    -2.0687    -0.0013 C.ar    
   5 C5             0.0382    -2.7735     0.0068 C.ar    
   6 C6            -1.1706    -2.1009     0.0168 C.ar    
   7 C7            -1.1960    -0.7214     0.0251 C.ar    
   8 O8             1.0264     2.0953     0.0080 O.2     
   9 N9            -1.1942     2.1319     0.0193 N.am    
  10 C10            2.5412    -2.8099    -0.0132 C.3     
  11 O11           -0.9065    -3.3012     6.2766 O.3     
  12 C12           -0.9496    -3.5508     7.6940 C.3     
  13 O13           -0.0450    -4.6563     7.8744 O.3     
  14 C14            0.8543    -4.5639     6.8509 C.ar    
  15 C15            0.3235    -3.7313     5.8683 C.ar    
  16 C16            2.1037    -5.1314     6.6757 C.ar    
  17 C17            2.8374    -4.8781     5.5207 C.ar    
  18 C18            2.2931    -4.0514     4.5426 C.ar    
  19 C19            1.0503    -3.4792     4.7169 C.ar    
  20 O20            4.0780    -5.3172     5.1621 O.3     
  21 C21            3.2964    -3.9952     3.4217 C.3     
  22 C22            4.2455    -5.1585     3.7401 C.3     
  23 N23            2.9777    -3.0523     1.3641 N.am    
  24 C24            2.6522    -4.1509     2.0742 C.2     
  25 C25            4.0192    -2.6820     3.3677 C.ar    
  26 C26            4.7899    -1.9825     4.2693 C.ar    
  27 C27            5.3364    -0.7623     3.9137 C.ar    
  28 C28            5.1062    -0.2467     2.6512 C.ar    
  29 C29            4.3341    -0.9431     1.7450 C.ar    
  30 C30            3.7803    -2.1723     2.0941 C.ar    
  31 O31            1.9727    -5.0825     1.6984 O.2     
  32 C32           -1.2149     3.5255     0.1325 C.ar    
  33 C33           -2.1830     4.2631    -0.5362 C.ar    
  34 C34           -2.2017     5.6418    -0.4228 C.ar    
  35 C35           -1.2556     6.2863     0.3564 C.ar    
  36 C36           -0.2894     5.5526     1.0240 C.ar    
  37 C37           -0.2709     4.1734     0.9184 C.ar    
  38 F38            0.6327     6.1839     1.7832 F       
  39 F39           -3.1433     6.3598    -1.0732 F       
  40 H40            2.1481    -0.1407    -0.0057 H       
  41 H41            0.0526    -3.8534     0.0049 H       
  42 H42           -2.0965    -2.6568     0.0224 H       
  43 H43           -2.1403    -0.1975     0.0378 H       
  44 H44           -2.0262     1.6389    -0.0559 H       
  45 H45            2.4157    -3.7627    -0.5276 H       
  46 H46            3.2911    -2.2128    -0.5322 H       
  47 H47           -0.6029    -2.6780     8.2473 H       
  48 H48           -1.9576    -3.8263     8.0039 H       
  49 H49            2.5124    -5.7752     7.4405 H       
  50 H50            0.6429    -2.8332     3.9534 H       
  51 H51            5.2752    -4.8952     3.4986 H       
  52 H52            3.9415    -6.0619     3.2113 H       
  53 H53            4.9682    -2.3869     5.2547 H       
  54 H54            5.9417    -0.2138     4.6203 H       
  55 H55            5.5327     0.7059     2.3737 H       
  56 H56            4.1583    -0.5337     0.7611 H       
  57 H57           -2.9206     3.7609    -1.1446 H       
  58 H58           -1.2712     7.3627     0.4432 H       
  59 H59            0.4799     3.6012     1.4431 H       
@<TRIPOS>BOND
   1    1    2 1
   2    1    8 2
   3    1    9 am
   4    2    3 ar
   5    2    7 ar
   6    3    4 ar
   7    3   40 1
   8    4    5 ar
   9    4   10 1
  10    5    6 ar
  11    5   41 1
  12    6    7 ar
  13    6   42 1
  14    7   43 1
  15    9   32 1
  16    9   44 1
  17   10   23 1
  18   10   45 1
  19   10   46 1
  20   11   12 1
  21   11   15 1
  22   12   13 1
  23   12   47 1
  24   12   48 1
  25   13   14 1
  26   14   15 ar
  27   14   16 ar
  28   15   19 ar
  29   16   17 ar
  30   16   49 1
  31   17   18 ar
  32   17   20 1
  33   18   19 ar
  34   18   21 1
  35   19   50 1
  36   20   22 1
  37   21   22 1
  38   21   24 1
  39   21   25 1
  40   22   51 1
  41   22   52 1
  42   23   24 am
  43   23   30 1
  44   24   31 2
  45   25   26 ar
  46   25   30 ar
  47   26   27 ar
  48   26   53 1
  49   27   28 ar
  50   27   54 1
  51   28   29 ar
  52   28   55 1
  53   29   30 ar
  54   29   56 1
  55   32   33 ar
  56   32   37 ar
  57   33   34 ar
  58   33   57 1
  59   34   35 ar
  60   34   39 1
  61   35   36 ar
  62   35   58 1
  63   36   37 ar
  64   36   38 1
  65   37   59 1

#	End of record

