#	Name: ASD05430059
#	Creating user name:	WinNT
#	Creation time:	15. 06. 2019 20:59

#	Modifying user name:	WinNT
#	Modification time:	15. 06. 2019 20:59

#	Program:	/corina/corina34_cracker 3.40 0067  02.08.2006

@<TRIPOS>MOLECULE
ASD05430059
  69   74    0    0    0
SMALL
NO_CHARGES


@<TRIPOS>ATOM
   1 C1             0.0004     1.2930    -0.5777 C.ar    
   2 C2             0.0530    -0.0951    -0.6989 C.ar    
   3 C3             1.2768    -0.7514    -0.6800 C.ar    
   4 C4             2.4452    -0.0340    -0.5409 C.ar    
   5 C5             2.4003     1.3587    -0.4188 C.ar    
   6 C6             1.1681     2.0194    -0.4382 C.ar    
   7 O7             4.8959     0.1227     0.1024 O.3     
   8 C8             4.8201     1.4822    -0.0971 C.2     
   9 C9             3.6468     2.1268    -0.2702 C.2     
  10 C10            5.8688    -0.2953     1.0693 C.3     
  11 C11            7.3117     0.1543     0.7926 C.3     
  12 N12            7.2716     1.5628     0.4006 N.pl3   
  13 C13            6.1263     2.1854    -0.1068 C.2     
  14 C14           -1.3931    -1.7822    -1.7911 C.2     
  15 N15           -1.1328    -0.8303    -0.8397 N.pl3   
  16 C16           -2.6415    -2.2324    -1.5611 C.2     
  17 N17           -3.1340    -1.5768    -0.4998 N.2     
  18 C18           -2.2398    -0.7342    -0.0589 C.2     
  19 C19           -3.3606    -3.2896    -2.3586 C.3     
  20 C20            8.3113     2.5877     0.4542 C.3     
  21 O21            7.8052     3.6157    -0.4240 O.3     
  22 N22            6.4133     3.3588    -0.5561 N.2     
  23 C23            8.4665     3.1154     1.8572 C.ar    
  24 C24            9.6400     2.0372    -0.0677 C.3     
  25 C25            8.9669     4.3872     2.0654 C.ar    
  26 C26            8.1029     2.3295     2.9349 C.ar    
  27 C27            8.2440     2.8127     4.2220 C.ar    
  28 C28            8.7500     4.0843     4.4319 C.ar    
  29 C29            9.1093     4.8723     3.3516 C.ar    
  30 F30            8.8883     4.5577     5.6896 F       
  31 C31            5.4245    -0.3741     2.5295 C.3     
  32 C32            5.6691    -1.6573     1.7321 C.3     
  33 C33           -3.8320    -4.4031    -1.4211 C.3     
  34 C34           -2.6100     3.8929    -0.5225 C.3     
  35 C35           -1.1783     3.3554    -0.4729 C.3     
  36 O36           -1.1990     1.9325    -0.6022 O.3     
  37 C37           10.6746     3.1634    -0.1165 C.3     
  38 O38           10.1023     1.0032     0.8036 O.3     
  39 H39            1.3129    -1.8266    -0.7742 H       
  40 H40            3.3954    -0.5471    -0.5259 H       
  41 H41            1.1289     3.0946    -0.3446 H       
  42 H42            3.6228     3.2061    -0.2996 H       
  43 H43            7.9139     0.0386     1.6937 H       
  44 H44            7.7359    -0.4420    -0.0152 H       
  45 H45           -0.7268    -2.1057    -2.5770 H       
  46 H46           -2.3599    -0.0720     0.7858 H       
  47 H47           -4.2221    -2.8454    -2.8572 H       
  48 H48           -2.6834    -3.7053    -3.1047 H       
  49 H49            9.4970     1.6316    -1.0692 H       
  50 H50            9.2471     5.0017     1.2226 H       
  51 H51            7.7082     1.3377     2.7709 H       
  52 H52            7.9593     2.1989     5.0637 H       
  53 H53            9.5044     5.8642     3.5141 H       
  54 H54            6.1556    -0.1089     3.2932 H       
  55 H55            4.3911    -0.1116     2.7561 H       
  56 H56            4.7967    -2.2389     1.4343 H       
  57 H57            6.5611    -2.2362     1.9713 H       
  58 H58           -2.9705    -4.8473    -0.9225 H       
  59 H59           -4.5092    -3.9874    -0.6750 H       
  60 H60           -4.3522    -5.1678    -1.9980 H       
  61 H61           -3.0673     3.6212    -1.4739 H       
  62 H62           -3.1883     3.4621     0.2949 H       
  63 H63           -2.5942     4.9783    -0.4238 H       
  64 H64           -0.6000     3.7862    -1.2902 H       
  65 H65           -0.7210     3.6272     0.4785 H       
  66 H66           11.6212     2.7712    -0.4883 H       
  67 H67           10.3220     3.9521    -0.7811 H       
  68 H68           10.8176     3.5690     0.8850 H       
  69 H69           10.9422     0.6074     0.5334 H       
@<TRIPOS>BOND
   1    1    2 ar
   2    1    6 ar
   3    1   36 1
   4    2    3 ar
   5    2   15 1
   6    3    4 ar
   7    3   39 1
   8    4    5 ar
   9    4   40 1
  10    5    6 ar
  11    5    9 1
  12    6   41 1
  13    7    8 1
  14    7   10 1
  15    8    9 2
  16    8   13 1
  17    9   42 1
  18   10   11 1
  19   10   31 1
  20   10   32 1
  21   11   12 1
  22   11   43 1
  23   11   44 1
  24   12   13 1
  25   12   20 1
  26   13   22 2
  27   14   15 1
  28   14   16 2
  29   14   45 1
  30   15   18 1
  31   16   17 1
  32   16   19 1
  33   17   18 2
  34   18   46 1
  35   19   33 1
  36   19   47 1
  37   19   48 1
  38   20   21 1
  39   20   23 1
  40   20   24 1
  41   21   22 1
  42   23   25 ar
  43   23   26 ar
  44   24   37 1
  45   24   38 1
  46   24   49 1
  47   25   29 ar
  48   25   50 1
  49   26   27 ar
  50   26   51 1
  51   27   28 ar
  52   27   52 1
  53   28   29 ar
  54   28   30 1
  55   29   53 1
  56   31   32 1
  57   31   54 1
  58   31   55 1
  59   32   56 1
  60   32   57 1
  61   33   58 1
  62   33   59 1
  63   33   60 1
  64   34   35 1
  65   34   61 1
  66   34   62 1
  67   34   63 1
  68   35   36 1
  69   35   64 1
  70   35   65 1
  71   37   66 1
  72   37   67 1
  73   37   68 1
  74   38   69 1

#	End of record

