#	Name: ASD05313192
#	Creating user name:	WinNT
#	Creation time:	15. 06. 2019 20:58

#	Modifying user name:	WinNT
#	Modification time:	15. 06. 2019 20:58

#	Program:	/corina/corina34_cracker 3.40 0067  02.08.2006

@<TRIPOS>MOLECULE
ASD05313192
  34   37    0    0    0
SMALL
NO_CHARGES


@<TRIPOS>ATOM
   1 C1            -0.0734     0.8209     1.0166 C.2     
   2 C2             0.1125    -0.6160     0.5917 C.3     
   3 N3             0.9375     1.7380     1.0427 N.pl3   
   4 N4             1.4566    -0.7159    -0.0082 N.am    
   5 C5             2.5713    -0.0365     0.6691 C.3     
   6 C6             2.3234     1.4767     0.6589 C.3     
   7 N7            -0.8979     2.6481     1.6954 N.2     
   8 N8            -1.1544     1.4163     1.4165 N.2     
   9 C9             0.3787     2.8977     1.4839 C.2     
  10 S10            1.7151     6.4946     2.1854 S.3     
  11 N11            2.8465     5.5412     1.6771 N.2     
  12 N12            2.3635     4.3810     1.4624 N.2     
  13 C13            1.0713     4.1885     1.6899 C.2     
  14 C14            0.4548     5.3237     2.1365 C.2     
  15 C15            1.6575    -1.4110    -1.1453 C.2     
  16 O16            2.7498    -1.4010    -1.6788 O.2     
  17 C17            0.5505    -2.1849    -1.7432 C.ar    
  18 C18            0.3192    -2.1291    -3.1202 C.ar    
  19 C19           -0.7186    -2.8566    -3.6728 C.ar    
  20 C20           -1.5274    -3.6387    -2.8625 C.ar    
  21 C21           -1.3012    -3.6958    -1.4974 C.ar    
  22 C22           -0.2654    -2.9796    -0.9355 C.ar    
  23 F23           -0.9451    -2.8051    -5.0037 F       
  24 Cl24          -2.8293    -4.5496    -3.5619 Cl      
  25 Cl25           1.3315    -1.1488    -4.1340 Cl      
  26 H26            0.0422    -1.2726     1.4589 H       
  27 H27           -0.6446    -0.8874    -0.1441 H       
  28 H28            2.6394    -0.3872     1.6989 H       
  29 H29            3.5025    -0.2563     0.1469 H       
  30 H30            2.5044     1.8687    -0.3419 H       
  31 H31            2.9952     1.9608     1.3678 H       
  32 H32           -0.5846     5.4556     2.3986 H       
  33 H33           -1.9352    -4.3064    -0.8716 H       
  34 H34           -0.0885    -3.0295     0.1287 H       
@<TRIPOS>BOND
   1    1    2 1
   2    1    3 1
   3    1    8 2
   4    2    4 1
   5    2   26 1
   6    2   27 1
   7    3    6 1
   8    3    9 1
   9    4    5 1
  10    4   15 am
  11    5    6 1
  12    5   28 1
  13    5   29 1
  14    6   30 1
  15    6   31 1
  16    7    8 1
  17    7    9 2
  18    9   13 1
  19   10   11 1
  20   10   14 1
  21   11   12 2
  22   12   13 1
  23   13   14 2
  24   14   32 1
  25   15   16 2
  26   15   17 1
  27   17   18 ar
  28   17   22 ar
  29   18   19 ar
  30   18   25 1
  31   19   20 ar
  32   19   23 1
  33   20   21 ar
  34   20   24 1
  35   21   22 ar
  36   21   33 1
  37   22   34 1

#	End of record

