#	Name: ASD01411295
#	Creating user name:	WinNT
#	Creation time:	15. 06. 2019 19:19

#	Modifying user name:	WinNT
#	Modification time:	15. 06. 2019 19:19

#	Program:	/corina/corina34_cracker 3.40 0067  02.08.2006

@<TRIPOS>MOLECULE
ASD01411295
  87   92    0    0    0
SMALL
NO_CHARGES


@<TRIPOS>ATOM
   1 C1            -0.0170     1.4052     0.0098 C.ar    
   2 C2             0.0021    -0.0041     0.0020 C.ar    
   3 C3            -1.2068    -0.7160    -0.0047 C.ar    
   4 C4            -2.3974    -0.0480    -0.0012 C.ar    
   5 C5            -2.4216     1.3491     0.0140 C.ar    
   6 C6            -1.2270     2.0748     0.0198 C.ar    
   7 N7             1.2962     1.8454    -0.0004 N.pl3   
   8 C8             2.1214     0.7471     0.0020 C.2     
   9 C9             1.3649    -0.3850     0.0026 C.2     
  10 C10            1.7025     3.2527    -0.0126 C.3     
  11 C11            0.9388     4.0096    -1.0704 C.2     
  12 N12            0.7193     5.3514    -0.8967 N.am    
  13 O13            0.5299     3.4371    -2.0583 O.2     
  14 C14           -0.0505     6.0005    -1.9890 C.3     
  15 C15           -1.0114     7.0202    -1.3764 C.3     
  16 C16           -2.4530     6.6631    -1.7518 C.3     
  17 C17           -3.6906     2.1097    -0.0009 C.2     
  18 O18           -4.7500     1.5831    -0.2780 O.2     
  19 N19           -3.6060     3.4280     0.3494 N.am    
  20 C20           -2.8873     5.4352    -0.9519 C.3     
  21 C21           -4.4138     5.3190    -0.9290 C.3     
  22 C22           -4.7993     4.2756     0.1340 C.3     
  23 C23            3.5997     0.7690     0.0049 C.ar    
  24 C24            4.2885     1.6333    -0.8482 C.ar    
  25 C25            1.8929    -1.7962     0.0038 C.3     
  26 C26            1.3958    -2.5257     1.2535 C.3     
  27 C27            1.9319    -3.9586     1.2547 C.3     
  28 C28            1.4354    -4.6900     0.0059 C.3     
  29 C29            1.9325    -3.9605    -1.2438 C.3     
  30 C30            1.3964    -2.5275    -1.2450 C.3     
  31 C31            5.6667     1.6511    -0.8422 C.ar    
  32 C32            6.3702     0.8105     0.0106 C.ar    
  33 C33            5.6886    -0.0507     0.8607 C.ar    
  34 C34            4.3104    -0.0704     0.8648 C.ar    
  35 O35            7.7285     0.8303     0.0130 O.3     
  36 C36            8.3888    -0.0600     0.9149 C.3     
  37 C37            9.8808     0.1014     0.7778 C.ar    
  38 C38           10.3966     1.0112    -0.1244 C.ar    
  39 C39           11.7704     1.1594    -0.2502 C.ar    
  40 C40           12.6230     0.3932     0.5306 C.ar    
  41 C41           12.1030    -0.5158     1.4319 C.ar    
  42 C42           10.7331    -0.6580     1.5598 C.ar    
  43 Br43          10.0242    -1.9029     2.7941 Br      
  44 O44           12.2799     2.0539    -1.1377 O.3     
  45 C45           13.7034     2.1532    -1.2138 C.3     
  46 H46           -1.1987    -1.7957    -0.0124 H       
  47 H47           -3.3236    -0.6031    -0.0092 H       
  48 H48           -1.2433     3.1544     0.0279 H       
  49 H49            1.4913     3.6947     0.9630 H       
  50 H50            2.7680     3.3350    -0.2190 H       
  51 H51            1.0446     5.8392    -0.1220 H       
  52 H52            0.6358     6.5105    -2.6662 H       
  53 H53           -0.6174     5.2518    -2.5410 H       
  54 H54           -0.9070     7.0107    -0.2912 H       
  55 H55           -0.7746     8.0153    -1.7540 H       
  56 H56           -3.1086     7.5014    -1.5155 H       
  57 H57           -2.5099     6.4446    -2.8176 H       
  58 H58           -2.7973     3.7910     0.7475 H       
  59 H59           -2.4633     4.5414    -1.4112 H       
  60 H60           -2.5158     5.5287     0.0689 H       
  61 H61           -4.8539     6.2832    -0.6732 H       
  62 H62           -4.7743     4.9975    -1.9060 H       
  63 H63           -5.6331     3.6723    -0.2223 H       
  64 H64           -5.0737     4.7761     1.0634 H       
  65 H65            3.7422     2.2868    -1.5122 H       
  66 H66            2.9827    -1.7764     0.0041 H       
  67 H67            1.7495    -2.0046     2.1432 H       
  68 H68            0.3059    -2.5455     1.2532 H       
  69 H69            3.0217    -3.9388     1.2549 H       
  70 H70            1.5778    -4.4783     2.1450 H       
  71 H71            1.8174    -5.7109     0.0067 H       
  72 H72            0.3456    -4.7098     0.0056 H       
  73 H73            3.0223    -3.9407    -1.2435 H       
  74 H74            1.5788    -4.4815    -2.1335 H       
  75 H75            0.3065    -2.5474    -1.2452 H       
  76 H76            1.7505    -2.0078    -2.1353 H       
  77 H77            6.2003     2.3194    -1.5018 H       
  78 H78            6.2392    -0.7029     1.5225 H       
  79 H79            3.7812    -0.7401     1.5264 H       
  80 H80            8.0907     0.1716     1.9374 H       
  81 H81            8.1113    -1.0875     0.6794 H       
  82 H82            9.7310     1.6066    -0.7317 H       
  83 H83           13.6927     0.5067     0.4339 H       
  84 H84           12.7666    -1.1127     2.0400 H       
  85 H85           13.9761     2.9011    -1.9584 H       
  86 H86           14.0996     2.4470    -0.2418 H       
  87 H87           14.1203     1.1874    -1.4993 H       
@<TRIPOS>BOND
   1    1    2 ar
   2    1    7 1
   3    1    6 ar
   4    2    3 ar
   5    2    9 1
   6    3    4 ar
   7    3   46 1
   8    4    5 ar
   9    4   47 1
  10    5    6 ar
  11    5   17 1
  12    6   48 1
  13    7    8 1
  14    7   10 1
  15    8    9 2
  16    8   23 1
  17    9   25 1
  18   10   11 1
  19   10   49 1
  20   10   50 1
  21   11   12 am
  22   11   13 2
  23   12   14 1
  24   12   51 1
  25   14   15 1
  26   14   52 1
  27   14   53 1
  28   15   16 1
  29   15   54 1
  30   15   55 1
  31   16   20 1
  32   16   56 1
  33   16   57 1
  34   17   18 2
  35   17   19 am
  36   19   22 1
  37   19   58 1
  38   20   21 1
  39   20   59 1
  40   20   60 1
  41   21   22 1
  42   21   61 1
  43   21   62 1
  44   22   63 1
  45   22   64 1
  46   23   24 ar
  47   23   34 ar
  48   24   31 ar
  49   24   65 1
  50   25   26 1
  51   25   30 1
  52   25   66 1
  53   26   27 1
  54   26   67 1
  55   26   68 1
  56   27   28 1
  57   27   69 1
  58   27   70 1
  59   28   29 1
  60   28   71 1
  61   28   72 1
  62   29   30 1
  63   29   73 1
  64   29   74 1
  65   30   75 1
  66   30   76 1
  67   31   32 ar
  68   31   77 1
  69   32   33 ar
  70   32   35 1
  71   33   34 ar
  72   33   78 1
  73   34   79 1
  74   35   36 1
  75   36   37 1
  76   36   80 1
  77   36   81 1
  78   37   38 ar
  79   37   42 ar
  80   38   39 ar
  81   38   82 1
  82   39   40 ar
  83   39   44 1
  84   40   41 ar
  85   40   83 1
  86   41   42 ar
  87   41   84 1
  88   42   43 1
  89   44   45 1
  90   45   85 1
  91   45   86 1
  92   45   87 1

#	End of record

