#	Name: ASD03330205
#	Creating user name:	WinNT
#	Creation time:	15. 06. 2019 20:36

#	Modifying user name:	WinNT
#	Modification time:	15. 06. 2019 20:36

#	Program:	/corina/corina34_cracker 3.40 0067  02.08.2006

@<TRIPOS>MOLECULE
ASD03330205
  52   54    0    0    0
SMALL
NO_CHARGES


@<TRIPOS>ATOM
   1 C1             0.9540     2.1599    -0.4145 C.ar    
   2 C2             0.6888     0.7051    -0.3786 C.2     
   3 N3            -0.4920     0.1208    -0.0353 N.pl3   
   4 C4            -0.3219    -1.2277    -0.1286 C.2     
   5 C5             0.9577    -1.4448    -0.5282 C.2     
   6 N6             1.5515    -0.2391    -0.6782 N.2     
   7 C7             1.5846    -2.7577    -0.7618 C.2     
   8 N8             2.8706    -2.8294    -1.1588 N.am    
   9 C9             0.1010     3.0432     0.2477 C.ar    
  10 O10            0.9416    -3.7767    -0.5964 O.2     
  11 C11            3.4938    -4.1347    -1.3911 C.3     
  12 C12            4.6513    -3.9785    -2.3795 C.3     
  13 C13            4.0247    -4.6891    -0.0676 C.3     
  14 C14            5.6195    -2.9108    -1.8664 C.3     
  15 C15            0.3534     4.4008     0.2109 C.ar    
  16 C16            1.4530     4.8849    -0.4836 C.ar    
  17 C17            2.3017     4.0103    -1.1425 C.ar    
  18 C18            2.0615     2.6526    -1.1058 C.ar    
  19 O19            5.0346    -3.8167     0.4434 O.3     
  20 C20            5.3885    -5.3122    -2.5163 C.3     
  21 C21           -1.7417     0.7719     0.3652 C.3     
  22 C22           -2.8872    -0.2378     0.2328 C.3     
  23 C23           -2.5136    -1.5379     0.9505 C.3     
  24 C24           -1.3949    -2.2428     0.1713 C.3     
  25 C25            4.1031    -3.5565    -3.7442 C.3     
  26 F26            1.6963     6.2134    -0.5177 F       
  27 F27           -0.4712     5.2581     0.8513 F       
  28 H28            3.3834    -2.0167    -1.2908 H       
  29 H29           -0.7551     2.6664     0.7876 H       
  30 H30            2.7548    -4.8221    -1.8027 H       
  31 H31            3.2078    -4.7593     0.6507 H       
  32 H32            4.4495    -5.6792    -0.2327 H       
  33 H33            6.1361    -3.2836    -0.9819 H       
  34 H34            6.3490    -2.6788    -2.6424 H       
  35 H35            5.0633    -2.0093    -1.6094 H       
  36 H36            3.1557     4.3921    -1.6823 H       
  37 H37            2.7242     1.9723    -1.6201 H       
  38 H38            5.4169    -4.1068     1.2829 H       
  39 H39            4.6987    -6.0729    -2.8818 H       
  40 H40            6.2131    -5.2009    -3.2204 H       
  41 H41            5.7791    -5.6128    -1.5441 H       
  42 H42           -1.6653     1.1042     1.4005 H       
  43 H43           -1.9321     1.6276    -0.2826 H       
  44 H44           -3.7902     0.1772     0.6806 H       
  45 H45           -3.0683    -0.4448    -0.8219 H       
  46 H46           -2.1673    -1.3105     1.9587 H       
  47 H47           -3.3865    -2.1886     1.0029 H       
  48 H48           -1.7922    -2.6447    -0.7608 H       
  49 H49           -0.9793    -3.0507     0.7736 H       
  50 H50            3.5779    -2.6064    -3.6467 H       
  51 H51            4.9277    -3.4453    -4.4483 H       
  52 H52            3.4133    -4.3172    -4.1097 H       
@<TRIPOS>BOND
   1    1    2 1
   2    1    9 ar
   3    1   18 ar
   4    2    3 1
   5    2    6 2
   6    3    4 1
   7    3   21 1
   8    4    5 2
   9    4   24 1
  10    5    6 1
  11    5    7 1
  12    7    8 am
  13    7   10 2
  14    8   11 1
  15    8   28 1
  16    9   15 ar
  17    9   29 1
  18   11   12 1
  19   11   13 1
  20   11   30 1
  21   12   14 1
  22   12   20 1
  23   12   25 1
  24   13   19 1
  25   13   31 1
  26   13   32 1
  27   14   33 1
  28   14   34 1
  29   14   35 1
  30   15   16 ar
  31   15   27 1
  32   16   17 ar
  33   16   26 1
  34   17   18 ar
  35   17   36 1
  36   18   37 1
  37   19   38 1
  38   20   39 1
  39   20   40 1
  40   20   41 1
  41   21   22 1
  42   21   42 1
  43   21   43 1
  44   22   23 1
  45   22   44 1
  46   22   45 1
  47   23   24 1
  48   23   46 1
  49   23   47 1
  50   24   48 1
  51   24   49 1
  52   25   50 1
  53   25   51 1
  54   25   52 1

#	End of record

