#	Name: ASD00460049
#	Creating user name:	WinNT
#	Creation time:	15. 06. 2019 18:36

#	Modifying user name:	WinNT
#	Modification time:	15. 06. 2019 18:36

#	Program:	/corina/corina34_cracker 3.40 0067  02.08.2006

@<TRIPOS>MOLECULE
ASD00460049
  30   29    0    0    0
SMALL
NO_CHARGES


@<TRIPOS>ATOM
   1 S1            -0.0225     1.8097     0.0120 S.3     
   2 O2            -2.6629     1.8543     0.2400 O.2     
   3 O3            -4.2829     5.9617     3.4077 O.3     
   4 O4            -0.8322    -2.6982    -1.0113 O.3     
   5 O5            -6.3042     5.1789     2.9770 O.2     
   6 O6            -1.9191    -2.6565     0.9124 O.2     
   7 N7            -2.1190    -0.0612     1.2182 N.am    
   8 N8            -5.8622     2.6743     3.7419 N.3     
   9 C9            -3.9814     3.0353     2.2155 C.3     
  10 C10           -3.4095     1.6389     2.4684 C.3     
  11 C11           -4.6976     3.5287     3.4743 C.3     
  12 C12           -1.4333    -0.5336     0.0129 C.3     
  13 C13           -2.7041     1.1529     1.2285 C.2     
  14 C14            0.0021    -0.0041     0.0020 C.3     
  15 C15           -5.1540     4.9500     3.2681 C.2     
  16 C16           -1.4129    -2.0405     0.0046 C.2     
  17 H17            1.2837     2.1301     0.0012 H       
  18 H18           -4.6222     6.8559     3.2655 H       
  19 H19           -0.8440    -3.6644    -0.9725 H       
  20 H20           -2.1520    -0.6222     2.0088 H       
  21 H21           -6.5119     2.6967     2.9702 H       
  22 H22           -5.5772     1.7284     3.9473 H       
  23 H23           -3.1709     3.7203     1.9665 H       
  24 H24           -4.6892     2.9936     1.3876 H       
  25 H25           -2.7017     1.6806     3.2963 H       
  26 H26           -4.2199     0.9539     2.7174 H       
  27 H27           -4.0134     3.4862     4.3218 H       
  28 H28           -1.9605    -0.1726    -0.8702 H       
  29 H29            0.5123    -0.3556    -0.8948 H       
  30 H30            0.5293    -0.3651     0.8851 H       
@<TRIPOS>BOND
   1    1   14 1
   2    1   17 1
   3    2   13 2
   4    3   15 1
   5    3   18 1
   6    4   16 1
   7    4   19 1
   8    5   15 2
   9    6   16 2
  10    7   13 am
  11    7   12 1
  12    7   20 1
  13    8   11 1
  14    8   21 1
  15    8   22 1
  16    9   10 1
  17    9   11 1
  18    9   23 1
  19    9   24 1
  20   10   13 1
  21   10   25 1
  22   10   26 1
  23   11   15 1
  24   11   27 1
  25   12   14 1
  26   12   16 1
  27   12   28 1
  28   14   29 1
  29   14   30 1

#	End of record

