#	Name: ASD01230074
#	Creating user name:	WinNT
#	Creation time:	15. 06. 2019 19:11

#	Modifying user name:	WinNT
#	Modification time:	15. 06. 2019 19:11

#	Program:	/corina/corina34_cracker 3.40 0067  02.08.2006

@<TRIPOS>MOLECULE
ASD01230074
  45   48    0    0    0
SMALL
NO_CHARGES


@<TRIPOS>ATOM
   1 C1            -0.0162     1.3455     0.0094 C.2     
   2 C2             0.0021    -0.0041     0.0020 C.2     
   3 C3            -1.1904    -0.8718     0.0083 C.ar    
   4 N4            -2.4138    -0.3419     0.0224 N.ar    
   5 C5            -3.4848    -1.1208     0.0281 C.ar    
   6 N6            -3.3851    -2.4435     0.0201 N.ar    
   7 C7            -2.2028    -3.0389     0.0060 C.ar    
   8 C8            -1.0560    -2.2671    -0.0063 C.ar    
   9 C9            -4.8310    -0.4979     0.0443 C.ar    
  10 C10           -5.9694    -1.2982     0.0505 C.ar    
  11 C11           -4.9581     0.8907     0.0591 C.ar    
  12 C12           -6.2106     1.4717     0.0741 C.ar    
  13 C13           -7.3440     0.6822     0.0746 C.ar    
  14 C14           -7.2290    -0.7070     0.0656 C.ar    
  15 C15           -8.4477    -1.5538     0.0656 C.ar    
  16 C16           -9.7097    -0.9630     0.0746 C.ar    
  17 C17          -10.8397    -1.7552     0.0746 C.ar    
  18 C18          -10.7212    -3.1335     0.0662 C.ar    
  19 C19           -9.4711    -3.7251     0.0573 C.ar    
  20 C20           -8.3342    -2.9422     0.0509 C.ar    
  21 S21          -12.4362    -1.0099     0.0859 S.o2    
  22 N22          -12.8871    -0.7930    -1.4927 N.am    
  23 O23          -13.3262    -1.9759     0.6283 O.2     
  24 O24          -12.2688     0.2889     0.6375 O.2     
  25 S25            1.6681    -0.5678    -0.0169 S.3     
  26 C26            2.2610     1.0879    -0.0137 C.2     
  27 C27            1.2267     1.9387     0.0008 C.2     
  28 Cl28           3.9344     1.5497    -0.0267 Cl      
  29 C29           -2.1082    -4.5429    -0.0023 C.3     
  30 F30           -3.3913    -5.0904    -0.1080 F       
  31 F31           -1.3340    -4.9554    -1.0922 F       
  32 F32           -1.5114    -4.9793     1.1854 F       
  33 H33           -0.9335     1.9155     0.0170 H       
  34 H34           -0.0795    -2.7283    -0.0182 H       
  35 H35           -5.8757    -2.3741     0.0432 H       
  36 H36           -4.0753     1.5129     0.0591 H       
  37 H37           -6.3044     2.5475     0.0859 H       
  38 H38           -8.3211     1.1420     0.0868 H       
  39 H39           -9.8034     0.1129     0.0819 H       
  40 H40          -11.6081    -3.7498     0.0669 H       
  41 H41           -9.3843    -4.8016     0.0511 H       
  42 H42           -7.3585    -3.4052     0.0436 H       
  43 H43          -12.2932    -1.0673    -2.2088 H       
  44 H44          -13.7452    -0.3915    -1.7012 H       
  45 H45            1.3577     3.0107     0.0049 H       
@<TRIPOS>BOND
   1    1    2 2
   2    1   27 1
   3    1   33 1
   4    2    3 1
   5    2   25 1
   6    3    4 ar
   7    3    8 ar
   8    4    5 ar
   9    5    6 ar
  10    5    9 1
  11    6    7 ar
  12    7   29 1
  13    7    8 ar
  14    8   34 1
  15    9   10 ar
  16    9   11 ar
  17   10   14 ar
  18   10   35 1
  19   11   12 ar
  20   11   36 1
  21   12   13 ar
  22   12   37 1
  23   13   14 ar
  24   13   38 1
  25   14   15 1
  26   15   16 ar
  27   15   20 ar
  28   16   17 ar
  29   16   39 1
  30   17   18 ar
  31   17   21 1
  32   18   19 ar
  33   18   40 1
  34   19   20 ar
  35   19   41 1
  36   20   42 1
  37   21   22 am
  38   21   23 2
  39   21   24 2
  40   22   43 1
  41   22   44 1
  42   25   26 1
  43   26   27 2
  44   26   28 1
  45   27   45 1
  46   29   30 1
  47   29   31 1
  48   29   32 1

#	End of record

