#	Name: ASD04590169
#	Creating user name:	WinNT
#	Creation time:	15. 06. 2019 20:50

#	Modifying user name:	WinNT
#	Modification time:	15. 06. 2019 20:50

#	Program:	/corina/corina34_cracker 3.40 0067  02.08.2006

@<TRIPOS>MOLECULE
ASD04590169
  59   62    0    0    0
SMALL
NO_CHARGES


@<TRIPOS>ATOM
   1 N1            -0.0374     1.3024     0.4609 N.pl3   
   2 N2            -0.0270     0.0191     0.4094 N.2     
   3 C3             1.2067    -0.4221     0.2571 C.2     
   4 C4             2.0527     0.7160     0.2093 C.2     
   5 C5             1.2255     1.7870     0.3418 C.2     
   6 C6             1.6275    -1.8323     0.1562 C.2     
   7 N7             0.7082    -2.8159     0.2181 N.am    
   8 O8             2.8037    -2.1073     0.0172 O.2     
   9 N9             3.4473     0.7328     0.0579 N.am    
  10 C10            4.1082     1.9071     0.0316 C.2     
  11 C11            1.1261    -4.2165     0.1179 C.3     
  12 O12            3.4957     2.9521     0.1392 O.2     
  13 C13           -0.0395    -5.0605    -0.4017 C.3     
  14 C14            0.3969    -6.5232    -0.5063 C.3     
  15 C15            0.8178    -7.0299     0.8746 C.3     
  16 C16            1.9834    -6.1859     1.3942 C.3     
  17 C17            1.5469    -4.7232     1.4988 C.3     
  18 C18            5.5747     1.9247    -0.1276 C.ar    
  19 C19            6.4051     1.8862     0.9978 C.ar    
  20 C20            7.7781     1.9031     0.8394 C.ar    
  21 N21            1.2368    -8.4343     0.7741 N.3     
  22 C22            0.0852    -9.3376     0.8997 C.3     
  23 C23            0.3841   -10.6529     0.1737 C.3     
  24 C24           -0.1760    -9.6321     2.3800 C.3     
  25 C25           -1.3267   -10.6350     2.4974 C.3     
  26 O26           -0.9970   -11.8230     1.7748 O.3     
  27 C27           -0.7883   -11.6163     0.3763 C.3     
  28 C28            8.3315     1.9584    -0.4269 C.ar    
  29 C29            7.5181     1.9972    -1.5448 C.ar    
  30 C30            6.1431     1.9742    -1.4051 C.ar    
  31 F31            5.8665     1.8331     2.2356 F       
  32 F32            5.3503     2.0117    -2.4983 F       
  33 H33           -0.8331     1.8471     0.5655 H       
  34 H34            1.5177     2.8266     0.3506 H       
  35 H35           -0.2302    -2.5965     0.3290 H       
  36 H36            3.9359    -0.1008    -0.0279 H       
  37 H37            1.9675    -4.2962    -0.5704 H       
  38 H38           -0.8810    -4.9808     0.2866 H       
  39 H39           -0.3393    -4.6995    -1.3855 H       
  40 H40           -0.4334    -7.1245    -0.8765 H       
  41 H41            1.2384    -6.6029    -1.1946 H       
  42 H42           -0.0237    -6.9502     1.5629 H       
  43 H43            2.2832    -6.5468     2.3780 H       
  44 H44            2.8248    -6.2656     0.7059 H       
  45 H45            2.3773    -4.1218     1.8689 H       
  46 H46            0.7055    -4.6434     2.1871 H       
  47 H47            8.4206     1.8735     1.7070 H       
  48 H48            1.7358    -8.6021    -0.0867 H       
  49 H49           -0.7950    -8.8696     0.4588 H       
  50 H50            0.5168   -10.4594    -0.8907 H       
  51 H51            1.2934   -11.0950     0.5807 H       
  52 H52            0.7220   -10.0537     2.8315 H       
  53 H53           -0.4439    -8.7087     2.8934 H       
  54 H54           -1.4889   -10.8810     3.5468 H       
  55 H55           -2.2344   -10.1971     2.0821 H       
  56 H56           -1.6889   -11.1913    -0.0667 H       
  57 H57           -0.5625   -12.5693    -0.1022 H       
  58 H58            9.4051     1.9717    -0.5435 H       
  59 H59            7.9585     2.0409    -2.5299 H       
@<TRIPOS>BOND
   1    1    2 1
   2    1    5 1
   3    1   33 1
   4    2    3 2
   5    3    4 1
   6    3    6 1
   7    4    5 2
   8    4    9 1
   9    5   34 1
  10    6    7 am
  11    6    8 2
  12    7   11 1
  13    7   35 1
  14    9   10 am
  15    9   36 1
  16   10   12 2
  17   10   18 1
  18   11   13 1
  19   11   17 1
  20   11   37 1
  21   13   14 1
  22   13   38 1
  23   13   39 1
  24   14   15 1
  25   14   40 1
  26   14   41 1
  27   15   16 1
  28   15   21 1
  29   15   42 1
  30   16   17 1
  31   16   43 1
  32   16   44 1
  33   17   45 1
  34   17   46 1
  35   18   19 ar
  36   18   30 ar
  37   19   20 ar
  38   19   31 1
  39   20   28 ar
  40   20   47 1
  41   21   22 1
  42   21   48 1
  43   22   23 1
  44   22   24 1
  45   22   49 1
  46   23   27 1
  47   23   50 1
  48   23   51 1
  49   24   25 1
  50   24   52 1
  51   24   53 1
  52   25   26 1
  53   25   54 1
  54   25   55 1
  55   26   27 1
  56   27   56 1
  57   27   57 1
  58   28   29 ar
  59   28   58 1
  60   29   30 ar
  61   29   59 1
  62   30   32 1

#	End of record

