#	Name: ASD03090821
#	Creating user name:	WinNT
#	Creation time:	15. 06. 2019 20:29

#	Modifying user name:	WinNT
#	Modification time:	15. 06. 2019 20:29

#	Program:	/corina/corina34_cracker 3.40 0067  02.08.2006

@<TRIPOS>MOLECULE
ASD03090821
  48   50    0    0    0
SMALL
NO_CHARGES


@<TRIPOS>ATOM
   1 N1            -0.6435     2.0695     0.0877 N.am    
   2 C2            -0.9251     0.7682    -0.1218 C.2     
   3 O3            -0.0291    -0.0581    -0.1143 O.2     
   4 N4            -2.1863     0.3840    -0.3378 N.2     
   5 C5             0.7395     2.4908     0.3245 C.3     
   6 C6             1.2708     1.8101     1.5875 C.3     
   7 C7             1.6058     2.0929    -0.8722 C.3     
   8 C8            -1.7196     3.0634     0.0726 C.3     
   9 C9            -1.7241     3.8303     1.3965 C.3     
  10 C10           -1.4946     4.0412    -1.0825 C.3     
  11 S11           -1.3500    -2.2137    -0.5725 S.3     
  12 C12           -2.4644    -0.9011    -0.5447 C.2     
  13 N13           -3.6846    -1.4475    -0.7768 N.pl3   
  14 C14           -3.7308    -2.7958    -0.9613 C.2     
  15 C15           -2.5783    -3.4490    -0.8968 C.2     
  16 C16           -2.3594    -4.9307    -1.0638 C.3     
  17 O17           -8.3894     1.4328    -0.9817 O.3     
  18 C18           -9.2832     0.3447    -0.6811 C.3     
  19 O19           -8.5515    -0.8238    -1.0963 O.3     
  20 C20           -7.2332    -0.4866    -0.9866 C.ar    
  21 C21           -7.1330     0.9013    -0.9161 C.ar    
  22 C22           -6.0888    -1.2643    -0.9406 C.ar    
  23 C23           -4.8439    -0.6604    -0.8240 C.ar    
  24 C24           -4.7473     0.7224    -0.7537 C.ar    
  25 C25           -5.8891     1.4997    -0.7992 C.ar    
  26 F26           -9.5524     0.2943     0.6908 F       
  27 F27          -10.4698     0.4670    -1.4120 F       
  28 H28            0.7727     3.5726     0.4534 H       
  29 H29            1.3380     0.7351     1.4201 H       
  30 H30            2.2595     2.2035     1.8238 H       
  31 H31            0.5934     2.0067     2.4186 H       
  32 H32            1.6712     1.0063    -0.9281 H       
  33 H33            1.1584     2.4776    -1.7886 H       
  34 H34            2.6052     2.5113    -0.7523 H       
  35 H35           -2.6774     2.5600    -0.0589 H       
  36 H36           -0.8092     4.4169     1.4797 H       
  37 H37           -2.5867     4.4960     1.4278 H       
  38 H38           -1.7797     3.1244     2.2252 H       
  39 H39           -1.3590     3.4837    -2.0092 H       
  40 H40           -2.3597     4.6977    -1.1765 H       
  41 H41           -0.6048     4.6388    -0.8845 H       
  42 H42           -4.6619    -3.3090    -1.1512 H       
  43 H43           -1.2986    -5.1559    -0.9540 H       
  44 H44           -2.9258    -5.4695    -0.3043 H       
  45 H45           -2.6954    -5.2383    -2.0541 H       
  46 H46           -6.1643    -2.3402    -0.9948 H       
  47 H47           -3.7787     1.1916    -0.6630 H       
  48 H48           -5.8115     2.5755    -0.7448 H       
@<TRIPOS>BOND
   1    1    2 am
   2    1    5 1
   3    1    8 1
   4    2    3 2
   5    2    4 1
   6    4   12 2
   7    5    6 1
   8    5    7 1
   9    5   28 1
  10    6   29 1
  11    6   30 1
  12    6   31 1
  13    7   32 1
  14    7   33 1
  15    7   34 1
  16    8    9 1
  17    8   10 1
  18    8   35 1
  19    9   36 1
  20    9   37 1
  21    9   38 1
  22   10   39 1
  23   10   40 1
  24   10   41 1
  25   11   12 1
  26   11   15 1
  27   12   13 1
  28   13   14 1
  29   13   23 1
  30   14   15 2
  31   14   42 1
  32   15   16 1
  33   16   43 1
  34   16   44 1
  35   16   45 1
  36   17   18 1
  37   17   21 1
  38   18   19 1
  39   18   26 1
  40   18   27 1
  41   19   20 1
  42   20   21 ar
  43   20   22 ar
  44   21   25 ar
  45   22   23 ar
  46   22   46 1
  47   23   24 ar
  48   24   25 ar
  49   24   47 1
  50   25   48 1

#	End of record

