#	Name: ASD01881998
#	Creating user name:	WinNT
#	Creation time:	15. 06. 2019 19:43

#	Modifying user name:	WinNT
#	Modification time:	15. 06. 2019 19:43

#	Program:	/corina/corina34_cracker 3.40 0067  02.08.2006

@<TRIPOS>MOLECULE
ASD01881998
  45   48    0    0    0
SMALL
NO_CHARGES


@<TRIPOS>ATOM
   1 N1             0.4459     0.1726     0.9439 N.pl3   
   2 N2             0.6736    -1.0898     1.0610 N.2     
   3 N3             1.9289    -1.3584     0.9736 N.2     
   4 C4             2.6161    -0.2139     0.7844 C.ar    
   5 C5             1.6498     0.8097     0.7621 C.ar    
   6 C6             3.9662     0.1090     0.6238 C.ar    
   7 C7             4.3325     1.4284     0.4456 C.ar    
   8 C8             3.3670     2.4321     0.4255 C.ar    
   9 C9             2.0430     2.1292     0.5807 C.ar    
  10 O10            5.6446     1.7500     0.2892 O.3     
  11 C11            5.9566     3.1328     0.1091 C.3     
  12 C12            7.4694     3.2979    -0.0487 C.3     
  13 N13            7.9159     2.5901    -1.2560 N.3     
  14 C14            9.3502     2.8056    -1.4927 C.3     
  15 C15            9.7918     1.9900    -2.7102 C.3     
  16 N16            9.0012     2.3950    -3.8808 N.3     
  17 C17            7.5669     2.1796    -3.6441 C.3     
  18 C18            7.1253     2.9951    -2.4267 C.3     
  19 C19           -0.8690     0.8168     0.9901 C.3     
  20 C20           -1.2002     1.1969     2.4347 C.3     
  21 C21           -2.4857     1.9896     2.6796 C.3     
  22 C22           -2.4063     0.5165     3.0854 C.3     
  23 Br23           5.2809    -1.2499     0.6510 Br      
  24 H24            3.6673     3.4600     0.2857 H       
  25 H25            1.3032     2.9159     0.5631 H       
  26 H26            5.4553     3.5050    -0.7843 H       
  27 H27            5.6181     3.6978     0.9777 H       
  28 H28            7.7120     4.3569    -0.1377 H       
  29 H29            7.9733     2.8818     0.8237 H       
  30 H30            9.5332     3.8640    -1.6782 H       
  31 H31            9.9153     2.4866    -0.6169 H       
  32 H32           10.8489     2.1709    -2.9050 H       
  33 H33            9.6341     0.9295    -2.5140 H       
  34 H34            9.1866     3.3556    -4.1277 H       
  35 H35            7.0018     2.4986    -4.5200 H       
  36 H36            7.3839     1.1212    -3.4586 H       
  37 H37            6.0682     2.8143    -2.2318 H       
  38 H38            7.2830     4.0557    -2.6228 H       
  39 H39           -0.8557     1.7146     0.3721 H       
  40 H40           -1.6247     0.1275     0.6134 H       
  41 H41           -0.3433     1.4186     3.0707 H       
  42 H42           -2.4746     2.7326     3.4770 H       
  43 H43           -3.0955     2.2404     1.8116 H       
  44 H44           -2.9638    -0.2018     2.4843 H       
  45 H45           -2.3430     0.2904     4.1498 H       
@<TRIPOS>BOND
   1    1    2 1
   2    1    5 1
   3    1   19 1
   4    2    3 2
   5    3    4 1
   6    4    5 ar
   7    4    6 ar
   8    5    9 ar
   9    6    7 ar
  10    6   23 1
  11    7    8 ar
  12    7   10 1
  13    8    9 ar
  14    8   24 1
  15    9   25 1
  16   10   11 1
  17   11   12 1
  18   11   26 1
  19   11   27 1
  20   12   13 1
  21   12   28 1
  22   12   29 1
  23   13   14 1
  24   13   18 1
  25   14   15 1
  26   14   30 1
  27   14   31 1
  28   15   16 1
  29   15   32 1
  30   15   33 1
  31   16   17 1
  32   16   34 1
  33   17   18 1
  34   17   35 1
  35   17   36 1
  36   18   37 1
  37   18   38 1
  38   19   20 1
  39   19   39 1
  40   19   40 1
  41   20   21 1
  42   20   22 1
  43   20   41 1
  44   21   22 1
  45   21   42 1
  46   21   43 1
  47   22   44 1
  48   22   45 1

#	End of record

