#	Name: ASD09116170
#	Creating user name:	WinNT
#	Creation time:	15. 06. 2019 21:20

#	Modifying user name:	WinNT
#	Modification time:	15. 06. 2019 21:20

#	Program:	/corina/corina34_cracker 3.40 0067  02.08.2006

@<TRIPOS>MOLECULE
ASD09116170
  66   71    0    0    0
SMALL
NO_CHARGES


@<TRIPOS>ATOM
   1 N1            -0.0266     1.4808     0.1051 N.2     
   2 C2            -0.0140     0.0097     0.1909 C.3     
   3 C3             1.2225     1.8593     0.0812 C.2     
   4 N4             2.0842     0.8235     0.1403 N.2     
   5 C5             1.4646    -0.3259     0.2082 C.2     
   6 N6             1.6191     3.1791     0.0037 N.pl3   
   7 C7             2.9774     3.5091     0.0982 C.ar    
   8 C8             3.4715     4.6166    -0.5783 C.ar    
   9 C9             3.8283     2.7320     0.8730 C.ar    
  10 C10            5.1669     3.0574     0.9666 C.ar    
  11 C11            5.6623     4.1617     0.2855 C.ar    
  12 C12            4.8101     4.9419    -0.4851 C.ar    
  13 N13            2.0278    -1.5619     0.2801 N.pl3   
  14 C14           -0.6793    -0.4545     1.4608 C.ar    
  15 C15           -0.5714     0.3117     2.6056 C.ar    
  16 N16           -1.3625    -1.5862     1.4624 N.ar    
  17 C17           -1.9541    -2.0188     2.5504 C.ar    
  18 C18           -1.8815    -1.3116     3.7384 C.ar    
  19 C19           -1.1835    -0.1202     3.7754 C.ar    
  20 N20            7.0188     4.4918     0.3807 N.3     
  21 C21            7.3266     5.6889    -0.4143 C.3     
  22 C22            8.7982     6.0621    -0.2207 C.3     
  23 N23            9.6450     4.9318    -0.6266 N.3     
  24 C24            9.3373     3.7348     0.1684 C.3     
  25 C25            7.8657     3.3615    -0.0252 C.3     
  26 C26           11.0691     5.2784    -0.5267 C.3     
  27 C27           -2.7541    -3.3072     2.5698 C.3     
  28 C28           -2.4310    -4.1356     3.8290 C.3     
  29 C29           -3.3335    -3.1414     4.5856 C.3     
  30 C30           -2.5684    -1.8645     4.9602 C.3     
  31 C31           -4.1107    -3.0233     3.2648 C.3     
  32 C32           -2.9834    -5.5617     3.7876 C.3     
  33 C33           -0.9604    -4.0747     4.2468 C.3     
  34 H34           -0.5005    -0.4304    -0.6796 H       
  35 H35            0.9574     3.8781    -0.1163 H       
  36 H36            2.8088     5.2232    -1.1776 H       
  37 H37            3.4431     1.8733     1.4026 H       
  38 H38            5.8286     2.4534     1.5698 H       
  39 H39            5.1954     5.8004    -1.0151 H       
  40 H40            2.9932    -1.6556     0.2843 H       
  41 H41            1.4639    -2.3498     0.3271 H       
  42 H42           -0.0158     1.2377     2.5912 H       
  43 H43           -1.1124     0.4554     4.6864 H       
  44 H44            7.1391     5.4835    -1.4682 H       
  45 H45            6.6957     6.5151    -0.0866 H       
  46 H46            9.0360     6.9326    -0.8321 H       
  47 H47            8.9795     6.2939     0.8288 H       
  48 H48            9.9682     2.9085    -0.1593 H       
  49 H49            9.5248     3.9401     1.2223 H       
  50 H50            7.6279     2.4910     0.5862 H       
  51 H51            7.6843     3.1297    -1.0747 H       
  52 H52           11.3075     5.5414     0.5039 H       
  53 H53           11.6732     4.4244    -0.8328 H       
  54 H54           11.2831     6.1266    -1.1769 H       
  55 H55           -2.7793    -3.8505     1.6252 H       
  56 H56           -3.8915    -3.5750     5.4154 H       
  57 H57           -1.8237    -2.0976     5.7212 H       
  58 H58           -3.2667    -1.1242     5.3505 H       
  59 H59           -4.5028    -2.0245     3.0729 H       
  60 H60           -4.8525    -3.8086     3.1192 H       
  61 H61           -2.3305    -6.1868     3.1785 H       
  62 H62           -3.0296    -5.9630     4.8000 H       
  63 H63           -3.9838    -5.5515     3.3549 H       
  64 H64           -0.5899    -3.0569     4.1251 H       
  65 H65           -0.8667    -4.3732     5.2909 H       
  66 H66           -0.3769    -4.7509     3.6219 H       
@<TRIPOS>BOND
   1    1    2 1
   2    1    3 2
   3    2   14 1
   4    2    5 1
   5    2   34 1
   6    3    4 1
   7    3    6 1
   8    4    5 2
   9    5   13 1
  10    6    7 1
  11    6   35 1
  12    7    8 ar
  13    7    9 ar
  14    8   12 ar
  15    8   36 1
  16    9   10 ar
  17    9   37 1
  18   10   11 ar
  19   10   38 1
  20   11   12 ar
  21   11   20 1
  22   12   39 1
  23   13   40 1
  24   13   41 1
  25   14   15 ar
  26   14   16 ar
  27   15   19 ar
  28   15   42 1
  29   16   17 ar
  30   17   18 ar
  31   17   27 1
  32   18   19 ar
  33   18   30 1
  34   19   43 1
  35   20   21 1
  36   20   25 1
  37   21   22 1
  38   21   44 1
  39   21   45 1
  40   22   23 1
  41   22   46 1
  42   22   47 1
  43   23   24 1
  44   23   26 1
  45   24   25 1
  46   24   48 1
  47   24   49 1
  48   25   50 1
  49   25   51 1
  50   26   52 1
  51   26   53 1
  52   26   54 1
  53   27   28 1
  54   27   31 1
  55   27   55 1
  56   28   29 1
  57   28   32 1
  58   28   33 1
  59   29   30 1
  60   29   31 1
  61   29   56 1
  62   30   57 1
  63   30   58 1
  64   31   59 1
  65   31   60 1
  66   32   61 1
  67   32   62 1
  68   32   63 1
  69   33   64 1
  70   33   65 1
  71   33   66 1

#	End of record

