#	Name: ASD01820220
#	Creating user name:	WinNT
#	Creation time:	15. 06. 2019 19:36

#	Modifying user name:	WinNT
#	Modification time:	15. 06. 2019 19:36

#	Program:	/corina/corina34_cracker 3.40 0067  02.08.2006

@<TRIPOS>MOLECULE
ASD01820220
  37   38    0    0    0
SMALL
NO_CHARGES


@<TRIPOS>ATOM
   1 C1            -0.0169     1.3956     0.0097 C.ar    
   2 C2             0.0021    -0.0041     0.0020 C.ar    
   3 C3            -1.1957    -0.6892     0.0103 C.ar    
   4 N4            -2.3456    -0.0432     0.0252 N.ar    
   5 C5            -2.4087     1.2743     0.0329 C.ar    
   6 C6            -1.2600     2.0388     0.0309 C.ar    
   7 C7            -3.5919    -0.8133     0.0329 C.3     
   8 O8            -3.9840    -1.0713     1.3826 O.3     
   9 C9            -5.1947    -1.8207     1.5030 C.3     
  10 N10           -5.5023    -2.0273     2.9204 N.ar    
  11 C11           -6.2429    -1.1357     3.5499 C.ar    
  12 C12           -6.5569    -1.2904     4.8847 C.ar    
  13 C13           -6.0769    -2.4134     5.5688 C.ar    
  14 C14           -5.2948    -3.3334     4.8607 C.ar    
  15 C15           -5.0343    -3.1019     3.5255 C.ar    
  16 C16           -6.3866    -2.6215     6.9982 C.2     
  17 N17           -5.9339    -3.6651     7.6124 N.2     
  18 O18           -6.2308    -3.8646     8.9825 O.3     
  19 C19            1.2398     2.1721     0.0019 C.2     
  20 N20            1.2013     3.4643     0.0092 N.2     
  21 O21            2.4059     4.2085     0.0017 O.3     
  22 H22            0.9399    -0.5396    -0.0105 H       
  23 H23           -1.1915    -1.7692     0.0041 H       
  24 H24           -3.3726     1.7613     0.0447 H       
  25 H25           -1.3191     3.1172     0.0373 H       
  26 H26           -4.3737    -0.2442    -0.4701 H       
  27 H27           -3.4383    -1.7584    -0.4878 H       
  28 H28           -6.0098    -1.2725     1.0305 H       
  29 H29           -5.0743    -2.7868     1.0128 H       
  30 H30           -6.6082    -0.2725     3.0135 H       
  31 H31           -7.1635    -0.5562     5.3938 H       
  32 H32           -4.9044    -4.2129     5.3510 H       
  33 H33           -4.4319    -3.8058     2.9706 H       
  34 H34           -6.9912    -1.9018     7.5300 H       
  35 H35           -5.8491    -4.6716     9.3542 H       
  36 H36            2.1908     1.6602    -0.0099 H       
  37 H37            2.2763     5.1668     0.0081 H       
@<TRIPOS>BOND
   1    1    2 ar
   2    1   19 1
   3    1    6 ar
   4    2    3 ar
   5    2   22 1
   6    3    4 ar
   7    3   23 1
   8    4    5 ar
   9    4    7 1
  10    5    6 ar
  11    5   24 1
  12    6   25 1
  13    7    8 1
  14    7   26 1
  15    7   27 1
  16    8    9 1
  17    9   10 1
  18    9   28 1
  19    9   29 1
  20   10   11 ar
  21   10   15 ar
  22   11   12 ar
  23   11   30 1
  24   12   13 ar
  25   12   31 1
  26   13   14 ar
  27   13   16 1
  28   14   15 ar
  29   14   32 1
  30   15   33 1
  31   16   17 2
  32   16   34 1
  33   17   18 1
  34   18   35 1
  35   19   20 2
  36   19   36 1
  37   20   21 1
  38   21   37 1

#	End of record

