#	Name: ASD01881705
#	Creating user name:	WinNT
#	Creation time:	15. 06. 2019 19:43

#	Modifying user name:	WinNT
#	Modification time:	15. 06. 2019 19:43

#	Program:	/corina/corina34_cracker 3.40 0067  02.08.2006

@<TRIPOS>MOLECULE
ASD01881705
  54   57    0    0    0
SMALL
NO_CHARGES


@<TRIPOS>ATOM
   1 C1            -0.0651     1.7461    -0.0393 C.3     
   2 C2            -0.2174     0.2576     0.2803 C.3     
   3 C3            -1.7017    -0.0833     0.4268 C.3     
   4 O4             0.3471    -0.5173    -0.7794 O.3     
   5 O5            -1.8393    -1.4446     0.8391 O.3     
   6 N6            -6.8268    -3.5685     1.6251 N.pl3   
   7 N7            -6.3925    -4.8498     1.9957 N.2     
   8 N8            -5.1071    -4.8904     1.9690 N.2     
   9 C9            -4.6081    -3.6951     1.5960 C.ar    
  10 C10           -5.6933    -2.8307     1.3699 C.ar    
  11 C11           -3.3030    -3.2171     1.4142 C.ar    
  12 C12           -3.1043    -1.9111     1.0166 C.ar    
  13 C13           -4.1898    -1.0667     0.7962 C.ar    
  14 C14           -5.4676    -1.5183     0.9707 C.ar    
  15 C15           -8.2139    -3.1081     1.5234 C.3     
  16 C16           -8.6612    -2.5356     2.8699 C.3     
  17 C17          -10.0478    -1.8924     2.9386 C.3     
  18 C18           -9.8010    -3.2507     3.5981 C.3     
  19 Br19          -1.8232    -4.3562     1.7113 Br      
  20 N20            1.3585     2.1077    -0.0214 N.3     
  21 C21            2.0366     1.6369    -1.2365 C.3     
  22 C22            3.4667     2.1868    -1.2651 C.3     
  23 N23            4.1309     1.8268    -0.0032 N.am    
  24 C24            3.4457     2.1440     1.2590 C.3     
  25 C25            2.0165     1.5959     1.1882 C.3     
  26 C26            5.3357     1.2226    -0.0034 C.2     
  27 O27            5.9109     1.0165     1.0442 O.2     
  28 C28            5.9680     0.8033    -1.3054 C.3     
  29 H29           -0.4794     1.9499    -1.0267 H       
  30 H30           -0.5989     2.3344     0.7071 H       
  31 H31            0.3011     0.0312     1.2120 H       
  32 H32           -2.1526     0.5699     1.1738 H       
  33 H33           -2.2033     0.0588    -0.5305 H       
  34 H34           -0.0666    -0.3665    -1.6404 H       
  35 H35           -4.0201    -0.0463     0.4855 H       
  36 H36           -6.3026    -0.8556     0.7975 H       
  37 H37           -8.2851    -2.3351     0.7582 H       
  38 H38           -8.8561    -3.9465     1.2538 H       
  39 H39           -7.8717    -2.0959     3.4794 H       
  40 H40          -10.1706    -1.0298     3.5935 H       
  41 H41          -10.6413    -1.8772     2.0245 H       
  42 H42          -10.2322    -4.1291     3.1179 H       
  43 H43           -9.7615    -3.2817     4.6870 H       
  44 H44            2.0658     0.5473    -1.2379 H       
  45 H45            1.4944     1.9877    -2.1147 H       
  46 H46            4.0103     1.7498    -2.1027 H       
  47 H47            3.4399     3.2716    -1.3683 H       
  48 H48            3.9756     1.6788     2.0903 H       
  49 H49            3.4169     3.2247     1.3985 H       
  50 H50            1.4598     1.9169     2.0686 H       
  51 H51            2.0459     0.5068     1.1531 H       
  52 H52            5.3282     1.1061    -2.1343 H       
  53 H53            6.9430     1.2802    -1.4060 H       
  54 H54            6.0903    -0.2798    -1.3177 H       
@<TRIPOS>BOND
   1    1    2 1
   2    1   20 1
   3    1   29 1
   4    1   30 1
   5    2    3 1
   6    2    4 1
   7    2   31 1
   8    3    5 1
   9    3   32 1
  10    3   33 1
  11    4   34 1
  12    5   12 1
  13    6    7 1
  14    6   10 1
  15    6   15 1
  16    7    8 2
  17    8    9 1
  18    9   10 ar
  19    9   11 ar
  20   10   14 ar
  21   11   12 ar
  22   11   19 1
  23   12   13 ar
  24   13   14 ar
  25   13   35 1
  26   14   36 1
  27   15   16 1
  28   15   37 1
  29   15   38 1
  30   16   17 1
  31   16   18 1
  32   16   39 1
  33   17   18 1
  34   17   40 1
  35   17   41 1
  36   18   42 1
  37   18   43 1
  38   20   21 1
  39   20   25 1
  40   21   22 1
  41   21   44 1
  42   21   45 1
  43   22   23 1
  44   22   46 1
  45   22   47 1
  46   23   24 1
  47   23   26 am
  48   24   25 1
  49   24   48 1
  50   24   49 1
  51   25   50 1
  52   25   51 1
  53   26   27 2
  54   26   28 1
  55   28   52 1
  56   28   53 1
  57   28   54 1

#	End of record

