#	Name: ASD00311195
#	Creating user name:	WinNT
#	Creation time:	15. 06. 2019 18:34

#	Modifying user name:	WinNT
#	Modification time:	15. 06. 2019 18:34

#	Program:	/corina/corina34_cracker 3.40 0067  02.08.2006

@<TRIPOS>MOLECULE
ASD00311195
  37   40    0    0    0
SMALL
NO_CHARGES


@<TRIPOS>ATOM
   1 C1            -0.0167     1.3778     0.0096 C.2     
   2 C2             0.0021    -0.0041     0.0020 C.2     
   3 C3             1.2585    -0.6766    -0.0140 C.2     
   4 C4             2.4315     0.0673    -0.0217 C.2     
   5 C5             2.3576     1.4751    -0.0134 C.2     
   6 N6             1.1651     2.0904     0.0022 N.am    
   7 C7            -1.3434    -0.5752     0.0123 C.2     
   8 C8            -2.3229     0.3265     0.0268 C.2     
   9 S9            -1.6792     1.9565     0.0358 S.3     
  10 O10            3.3825     2.1372    -0.0200 O.2     
  11 C11            3.7475    -0.6121    -0.0379 C.ar    
  12 C12            4.5929    -0.4748    -1.1387 C.ar    
  13 C13            5.8177    -1.1102    -1.1479 C.ar    
  14 C14            6.2077    -1.8822    -0.0682 C.ar    
  15 C15            5.3735    -2.0223     1.0266 C.ar    
  16 C16            4.1488    -1.3871     1.0501 C.ar    
  17 O17            1.3084    -2.0291    -0.0213 O.3     
  18 C18           -1.5961    -2.0356     0.0062 C.ar    
  19 C19           -1.7280    -2.7199    -1.2063 C.ar    
  20 C20           -1.9643    -4.0855    -1.2037 C.ar    
  21 C21           -2.0696    -4.7690    -0.0019 C.ar    
  22 C22           -1.9395    -4.0920     1.1994 C.ar    
  23 C23           -1.6974    -2.7328     1.2084 C.ar    
  24 O24           -1.6253    -2.0476    -2.3836 O.3     
  25 F25           -2.3003    -6.1001    -0.0027 F       
  26 F26           -2.0924    -4.7509    -2.3725 F       
  27 Cl27          -4.0150    -0.0615     0.0415 Cl      
  28 H28            1.1330     3.0599     0.0073 H       
  29 H29            4.2893     0.1274    -1.9823 H       
  30 H30            6.4730    -1.0049    -1.9999 H       
  31 H31            7.1671    -2.3780    -0.0802 H       
  32 H32            5.6835    -2.6263     1.8665 H       
  33 H33            3.5004    -1.4935     1.9072 H       
  34 H34            2.2056    -2.3896    -0.0322 H       
  35 H35           -2.0229    -4.6300     2.1321 H       
  36 H36           -1.5918    -2.2091     2.1471 H       
  37 H37           -0.7251    -2.0035    -2.7340 H       
@<TRIPOS>BOND
   1    1    2 2
   2    1    6 1
   3    1    9 1
   4    2    3 1
   5    2    7 1
   6    3    4 2
   7    3   17 1
   8    4    5 1
   9    4   11 1
  10    5    6 am
  11    5   10 2
  12    6   28 1
  13    7    8 2
  14    7   18 1
  15    8    9 1
  16    8   27 1
  17   11   12 ar
  18   11   16 ar
  19   12   13 ar
  20   12   29 1
  21   13   14 ar
  22   13   30 1
  23   14   15 ar
  24   14   31 1
  25   15   16 ar
  26   15   32 1
  27   16   33 1
  28   17   34 1
  29   18   19 ar
  30   18   23 ar
  31   19   20 ar
  32   19   24 1
  33   20   21 ar
  34   20   26 1
  35   21   22 ar
  36   21   25 1
  37   22   23 ar
  38   22   35 1
  39   23   36 1
  40   24   37 1

#	End of record

