#	Name: ASD03731346
#	Creating user name:	WinNT
#	Creation time:	15. 06. 2019 20:45

#	Modifying user name:	WinNT
#	Modification time:	15. 06. 2019 20:45

#	Program:	/corina/corina34_cracker 3.40 0067  02.08.2006

@<TRIPOS>MOLECULE
ASD03731346
  65   72    0    0    0
SMALL
NO_CHARGES


@<TRIPOS>ATOM
   1 C1            -0.0189     1.4721     0.0309 C.2     
   2 C2            -0.0010    -0.0058     0.0346 C.ar    
   3 C3             1.2145    -0.6922     0.0408 C.ar    
   4 C4             1.2242    -2.0716     0.0442 C.ar    
   5 C5             0.0326    -2.7749     0.0415 C.ar    
   6 C6            -1.1757    -2.1008     0.0349 C.ar    
   7 C7            -1.1996    -0.7214     0.0377 C.ar    
   8 O8             1.0264     2.0927     0.0332 O.2     
   9 N9            -1.1942     2.1318     0.0193 N.am    
  10 C10            0.0508    -4.2818     0.0452 C.3     
  11 O11           -2.1460    -1.4826     6.2926 O.3     
  12 C12           -2.3926    -1.5562     7.7093 C.3     
  13 O13           -2.8953    -2.8918     7.9003 O.3     
  14 C14           -2.3571    -3.6335     6.8878 C.ar    
  15 C15           -1.8975    -2.7664     5.8991 C.ar    
  16 C16           -2.2191    -5.0006     6.7276 C.ar    
  17 C17           -1.6242    -5.5197     5.5816 C.ar    
  18 C18           -1.1765    -4.6439     4.5973 C.ar    
  19 C19           -1.3071    -3.2801     4.7567 C.ar    
  20 O20           -1.3784    -6.8165     5.2380 O.3     
  21 C21           -0.6168    -5.4946     3.4887 C.3     
  22 C22           -1.1480    -6.8963     3.8181 C.3     
  23 N23            0.0516    -4.7667     1.4277 N.am    
  24 C24           -1.0663    -5.0298     2.1334 C.2     
  25 C25            0.8821    -5.4604     3.4440 C.ar    
  26 C26            1.8683    -5.7662     4.3551 C.ar    
  27 C27            3.2002    -5.6294     4.0066 C.ar    
  28 C28            3.5385    -5.1844     2.7415 C.ar    
  29 C29            2.5543    -4.8760     1.8257 C.ar    
  30 C30            1.2110    -5.0110     2.1677 C.ar    
  31 O31           -2.2108    -4.9141     1.7490 O.2     
  32 C32           -1.2149     3.5222     0.1323 C.ar    
  33 C33           -0.2768     4.1711     0.9064 C.ar    
  34 C34           -0.2888     5.5575     1.0257 C.ar    
  35 C35           -1.2241     6.3104     0.3834 C.ar    
  36 C36           -2.1980     5.6879    -0.4156 C.ar    
  37 C37           -3.1761     6.4395    -1.0898 C.ar    
  38 C38           -4.1049     5.8040    -1.8551 C.ar    
  39 C39           -4.1024     4.4163    -1.9813 C.ar    
  40 C40           -3.1703     3.6566    -1.3427 C.ar    
  41 C41           -2.1927     4.2775    -0.5496 C.ar    
  42 H42            2.1453    -0.1444     0.0426 H       
  43 H43            2.1639    -2.6039     0.0487 H       
  44 H44           -2.1023    -2.6557     0.0321 H       
  45 H45           -2.1434    -0.1964     0.0374 H       
  46 H46           -2.0257     1.6398    -0.0676 H       
  47 H47           -0.8328    -4.6571    -0.4710 H       
  48 H48            0.9471    -4.6355    -0.4644 H       
  49 H49           -1.4673    -1.4119     8.2670 H       
  50 H50           -3.1391    -0.8199     8.0068 H       
  51 H51           -2.5754    -5.6695     7.4970 H       
  52 H52           -0.9482    -2.6112     3.9885 H       
  53 H53           -0.4015    -7.6569     3.5892 H       
  54 H54           -2.0784    -7.0928     3.2854 H       
  55 H55            1.6019    -6.1133     5.3424 H       
  56 H56            3.9740    -5.8699     4.7206 H       
  57 H57            4.5782    -5.0775     2.4696 H       
  58 H58            2.8263    -4.5285     0.8400 H       
  59 H59            0.4757     3.5970     1.4265 H       
  60 H60            0.4558     6.0443     1.6380 H       
  61 H61           -1.2176     7.3853     0.4883 H       
  62 H62           -3.1907     7.5157    -1.0006 H       
  63 H63           -4.8553     6.3838    -2.3721 H       
  64 H64           -4.8510     3.9363    -2.5943 H       
  65 H65           -3.1804     2.5819    -1.4492 H       
@<TRIPOS>BOND
   1    1    2 1
   2    1    8 2
   3    1    9 am
   4    2    3 ar
   5    2    7 ar
   6    3    4 ar
   7    3   42 1
   8    4    5 ar
   9    4   43 1
  10    5    6 ar
  11    5   10 1
  12    6    7 ar
  13    6   44 1
  14    7   45 1
  15    9   32 1
  16    9   46 1
  17   10   23 1
  18   10   47 1
  19   10   48 1
  20   11   12 1
  21   11   15 1
  22   12   13 1
  23   12   49 1
  24   12   50 1
  25   13   14 1
  26   14   15 ar
  27   14   16 ar
  28   15   19 ar
  29   16   17 ar
  30   16   51 1
  31   17   18 ar
  32   17   20 1
  33   18   19 ar
  34   18   21 1
  35   19   52 1
  36   20   22 1
  37   21   22 1
  38   21   24 1
  39   21   25 1
  40   22   53 1
  41   22   54 1
  42   23   24 am
  43   23   30 1
  44   24   31 2
  45   25   26 ar
  46   25   30 ar
  47   26   27 ar
  48   26   55 1
  49   27   28 ar
  50   27   56 1
  51   28   29 ar
  52   28   57 1
  53   29   30 ar
  54   29   58 1
  55   32   33 ar
  56   32   41 ar
  57   33   34 ar
  58   33   59 1
  59   34   35 ar
  60   34   60 1
  61   35   36 ar
  62   35   61 1
  63   36   37 ar
  64   36   41 ar
  65   37   38 ar
  66   37   62 1
  67   38   39 ar
  68   38   63 1
  69   39   40 ar
  70   39   64 1
  71   40   41 ar
  72   40   65 1

#	End of record

