#	Name: ASD01410586
#	Creating user name:	WinNT
#	Creation time:	15. 06. 2019 19:18

#	Modifying user name:	WinNT
#	Modification time:	15. 06. 2019 19:18

#	Program:	/corina/corina34_cracker 3.40 0067  02.08.2006

@<TRIPOS>MOLECULE
ASD01410586
  71   73    0    0    0
SMALL
NO_CHARGES


@<TRIPOS>ATOM
   1 C1            -5.5541     6.2713     3.5647 C.ar    
   2 N2            -5.9321     5.4662     4.5530 N.ar    
   3 C3            -6.4720     4.2913     4.2991 C.ar    
   4 N4            -6.6602     3.8638     3.0673 N.ar    
   5 C5            -6.3085     4.6109     2.0246 C.ar    
   6 C6            -5.7412     5.8599     2.2499 C.ar    
   7 O7            -6.5056     4.1633     0.7606 O.3     
   8 C8            -6.9740     2.8968     0.5974 C.ar    
   9 C9            -8.3377     2.6404     0.7155 C.ar    
  10 C10           -8.8233     1.3564     0.5508 C.ar    
  11 C11           -7.9530     0.3143     0.2670 C.ar    
  12 C12           -6.5774     0.5673     0.1469 C.ar    
  13 C13           -6.0963     1.8699     0.3094 C.ar    
  14 N14           -8.4428    -0.9803     0.1020 N.am    
  15 C15           -8.8032    -1.4135    -1.1223 C.2     
  16 C16           -8.5657    -1.8701     1.2593 C.3     
  17 O17           -9.3094    -2.5078    -1.2537 O.2     
  18 C18           -8.5773    -0.5381    -2.3280 C.3     
  19 C19           -9.7048    -0.7604    -3.3381 C.3     
  20 C20           -9.4754     0.1283    -4.5622 C.3     
  21 C21           -8.1348    -0.2285    -5.2076 C.3     
  22 C22           -7.0073    -0.0063    -4.1975 C.3     
  23 C23           -7.2367    -0.8950    -2.9734 C.3     
  24 C24           -7.9054     0.6602    -6.4317 C.3     
  25 C25           -7.8954    -1.2235     2.4732 C.3     
  26 O26          -10.6407    -2.8368     0.4845 O.3     
  27 C27          -10.0459    -2.1112     1.5623 C.3     
  28 C28          -12.0301    -3.1158     0.6684 C.3     
  29 O29           -6.4908    -1.1084     2.2366 O.3     
  30 C30           -5.7665    -0.5135     3.3154 C.3     
  31 F31           -9.1902     3.6511     0.9927 F       
  32 O32           -4.9996     7.4781     3.8350 O.3     
  33 C33           -4.8475     7.8284     5.2120 C.3     
  34 C34           -5.6463    -0.5332    -0.1538 C.2     
  35 O35           -6.0754    -1.6471    -0.3818 O.2     
  36 O36           -4.3182    -0.3051    -0.1762 O.3     
  37 C37           -5.3282     6.7401     1.0985 C.3     
  38 F38           -6.4005     7.5598     0.7302 F       
  39 F39           -4.2444     7.5357     1.4852 F       
  40 F40           -4.9564     5.9420     0.0113 F       
  41 H41           -6.7684     3.6607     5.1243 H       
  42 H42           -9.8820     1.1644     0.6437 H       
  43 H43           -5.0391     2.0714     0.2183 H       
  44 H44           -8.0802    -2.8210     1.0398 H       
  45 H45           -8.5657     0.5076    -2.0208 H       
  46 H46           -9.7164    -1.8061    -3.6454 H       
  47 H47          -10.6598    -0.5062    -2.8784 H       
  48 H48          -10.2786    -0.0300    -5.2818 H       
  49 H49           -9.4638     1.1741    -4.2550 H       
  50 H50           -8.1465    -1.2743    -5.5148 H       
  51 H51           -6.0523    -0.2605    -4.6572 H       
  52 H52           -6.9957     1.0395    -3.8902 H       
  53 H53           -6.4335    -0.7367    -2.2538 H       
  54 H54           -7.2484    -1.9407    -3.2806 H       
  55 H55           -7.8938     1.7059    -6.1244 H       
  56 H56           -6.9504     0.4059    -6.8914 H       
  57 H57           -8.7087     0.5018    -7.1513 H       
  58 H58           -8.3187    -0.2325     2.6370 H       
  59 H59           -8.0659    -1.8416     3.3546 H       
  60 H60          -10.1392    -2.6870     2.4831 H       
  61 H61          -10.5534    -1.1537     1.6795 H       
  62 H62          -12.5788    -2.1792     0.7671 H       
  63 H63          -12.4067    -3.6686    -0.1922 H       
  64 H64          -12.1645    -3.7124     1.5707 H       
  65 H65           -5.8929    -1.1170     4.2142 H       
  66 H66           -4.7086    -0.4621     3.0580 H       
  67 H67           -6.1457     0.4922     3.4966 H       
  68 H68           -5.8252     7.8408     5.6939 H       
  69 H69           -4.2088     7.0955     5.7050 H       
  70 H70           -4.3927     8.8161     5.2876 H       
  71 H71           -3.7467    -1.0585    -0.3784 H       
@<TRIPOS>BOND
   1    1    2 ar
   2    1   32 1
   3    1    6 ar
   4    2    3 ar
   5    3    4 ar
   6    3   41 1
   7    4    5 ar
   8    5    6 ar
   9    5    7 1
  10    6   37 1
  11    7    8 1
  12    8    9 ar
  13    8   13 ar
  14    9   10 ar
  15    9   31 1
  16   10   11 ar
  17   10   42 1
  18   11   12 ar
  19   11   14 1
  20   12   13 ar
  21   12   34 1
  22   13   43 1
  23   14   15 am
  24   14   16 1
  25   15   17 2
  26   15   18 1
  27   16   25 1
  28   16   27 1
  29   16   44 1
  30   18   19 1
  31   18   23 1
  32   18   45 1
  33   19   20 1
  34   19   46 1
  35   19   47 1
  36   20   21 1
  37   20   48 1
  38   20   49 1
  39   21   22 1
  40   21   24 1
  41   21   50 1
  42   22   23 1
  43   22   51 1
  44   22   52 1
  45   23   53 1
  46   23   54 1
  47   24   55 1
  48   24   56 1
  49   24   57 1
  50   25   29 1
  51   25   58 1
  52   25   59 1
  53   26   27 1
  54   26   28 1
  55   27   60 1
  56   27   61 1
  57   28   62 1
  58   28   63 1
  59   28   64 1
  60   29   30 1
  61   30   65 1
  62   30   66 1
  63   30   67 1
  64   32   33 1
  65   33   68 1
  66   33   69 1
  67   33   70 1
  68   34   35 2
  69   34   36 1
  70   36   71 1
  71   37   38 1
  72   37   39 1
  73   37   40 1

#	End of record

