#	Name: ASD03092074
#	Creating user name:	WinNT
#	Creation time:	15. 06. 2019 20:31

#	Modifying user name:	WinNT
#	Modification time:	15. 06. 2019 20:31

#	Program:	/corina/corina34_cracker 3.40 0067  02.08.2006

@<TRIPOS>MOLECULE
ASD03092074
  43   45    0    0    0
SMALL
NO_CHARGES


@<TRIPOS>ATOM
   1 N1            -0.4901     1.8821     0.5244 N.pl3   
   2 C2            -0.0635     0.5883     0.4701 C.2     
   3 C3            -1.1347    -0.1813     0.1153 C.2     
   4 C4            -2.2363     0.6679    -0.0489 C.2     
   5 N5            -1.8529     1.8987     0.2011 N.2     
   6 N6            -3.5287     0.2711    -0.4127 N.pl3   
   7 C7            -4.5082     1.2343    -0.6748 C.ar    
   8 C8            -5.8345     0.8517    -0.8433 C.ar    
   9 C9            -6.8003     1.8082    -1.1025 C.ar    
  10 C10           -6.4461     3.1429    -1.1943 C.ar    
  11 C11           -4.1595     2.5758    -0.7618 C.ar    
  12 C12            1.3079     0.1065     0.7445 C.ar    
  13 C13            0.3296     3.0471     0.8662 C.3     
  14 C14            2.1981     0.8684     1.5094 C.ar    
  15 C15            3.4676     0.3810     1.7408 C.ar    
  16 N16            3.8453    -0.7849     1.2520 N.ar    
  17 C17            3.0375    -1.5346     0.5260 C.ar    
  18 C18            1.7493    -1.1267     0.2510 C.ar    
  19 C19            3.5276    -2.8573    -0.0043 C.3     
  20 O20           -0.1203     4.1810     0.1220 O.3     
  21 C21           -5.1277     3.5247    -1.0269 C.ar    
  22 Cl22          -8.4568     1.3337    -1.3134 Cl      
  23 C23            0.2044     3.3372     2.3632 C.3     
  24 C24            1.1550     4.4742     2.7436 C.3     
  25 F25           -6.1793    -0.4515    -0.7545 F       
  26 H26           -1.1326    -1.2533    -0.0155 H       
  27 H27           -3.7448    -0.6719    -0.4829 H       
  28 H28           -7.2011     3.8880    -1.3973 H       
  29 H29           -3.1310     2.8764    -0.6266 H       
  30 H30            1.3719     2.8423     0.6217 H       
  31 H31            1.8959     1.8238     1.9123 H       
  32 H32            4.1621     0.9618     2.3297 H       
  33 H33            1.0936    -1.7456    -0.3436 H       
  34 H34            3.3115    -3.6420     0.7207 H       
  35 H35            3.0226    -3.0816    -0.9439 H       
  36 H36            4.6031    -2.8050    -0.1734 H       
  37 H37           -1.0418     4.4213     0.2900 H       
  38 H38           -4.8551     4.5672    -1.0992 H       
  39 H39           -0.8206     3.6287     2.5924 H       
  40 H40            0.4630     2.4426     2.9296 H       
  41 H41            1.0658     4.6809     3.8101 H       
  42 H42            2.1800     4.1828     2.5145 H       
  43 H43            0.8964     5.3688     2.1772 H       
@<TRIPOS>BOND
   1    1    2 1
   2    1   13 1
   3    1    5 1
   4    2    3 2
   5    2   12 1
   6    3    4 1
   7    3   26 1
   8    4    5 2
   9    4    6 1
  10    6    7 1
  11    6   27 1
  12    7    8 ar
  13    7   11 ar
  14    8    9 ar
  15    8   25 1
  16    9   10 ar
  17    9   22 1
  18   10   21 ar
  19   10   28 1
  20   11   21 ar
  21   11   29 1
  22   12   14 ar
  23   12   18 ar
  24   13   20 1
  25   13   23 1
  26   13   30 1
  27   14   15 ar
  28   14   31 1
  29   15   16 ar
  30   15   32 1
  31   16   17 ar
  32   17   18 ar
  33   17   19 1
  34   18   33 1
  35   19   34 1
  36   19   35 1
  37   19   36 1
  38   20   37 1
  39   21   38 1
  40   23   24 1
  41   23   39 1
  42   23   40 1
  43   24   41 1
  44   24   42 1
  45   24   43 1

#	End of record

