#	Name: ASD04590089
#	Creating user name:	WinNT
#	Creation time:	15. 06. 2019 20:50

#	Modifying user name:	WinNT
#	Modification time:	15. 06. 2019 20:50

#	Program:	/corina/corina34_cracker 3.40 0067  02.08.2006

@<TRIPOS>MOLECULE
ASD04590089
  50   51    0    0    0
SMALL
NO_CHARGES


@<TRIPOS>ATOM
   1 N1            -0.0153     1.2802     0.0091 N.pl3   
   2 N2             0.0021    -0.0041     0.0020 N.2     
   3 C3             1.2455    -0.4440    -0.0122 C.2     
   4 C4             2.0903     0.6961    -0.0142 C.2     
   5 C5             1.2523     1.7667    -0.0004 C.2     
   6 N6             3.4929     0.7146    -0.0270 N.am    
   7 C7             4.1513     1.8906    -0.0271 C.2     
   8 C8             5.6278     1.9101    -0.0406 C.ar    
   9 C9             6.3412     1.9132     1.1611 C.ar    
  10 C10            7.7219     1.9310     1.1402 C.ar    
  11 C11            8.3988     1.9458    -0.0661 C.ar    
  12 C12            7.6997     1.9429    -1.2598 C.ar    
  13 C13            6.3189     1.9198    -1.2553 C.ar    
  14 Cl14           5.4939     1.8952     2.6762 Cl      
  15 Cl15           5.4438     1.9156    -2.7545 Cl      
  16 C16            1.6764    -1.8547    -0.0239 C.2     
  17 O17            2.8611    -2.1284    -0.0362 O.2     
  18 N18            0.7571    -2.8402    -0.0209 N.am    
  19 C19            1.1850    -4.2412    -0.0325 C.3     
  20 C20            0.0892    -5.1161     0.5826 C.3     
  21 C21            1.4340    -4.6883    -1.4757 C.3     
  22 C22            1.8216    -6.1687    -1.4863 C.3     
  23 N23            0.7411    -6.9632    -0.8884 N.3     
  24 C24            0.5158    -6.5841     0.5123 C.3     
  25 O25            3.5296     2.9355    -0.0159 O.2     
  26 H26           -0.8184     1.8242     0.0160 H       
  27 H27            1.5405     2.8076     0.0024 H       
  28 H28            3.9889    -0.1189    -0.0359 H       
  29 H29            8.2746     1.9338     2.0680 H       
  30 H30            9.4786     1.9601    -0.0760 H       
  31 H31            8.2351     1.9545    -2.1976 H       
  32 H32           -0.1880    -2.6218    -0.0111 H       
  33 H33            2.1028    -4.3465     0.5459 H       
  34 H34           -0.0627    -4.8308     1.6236 H       
  35 H35           -0.8392    -4.9800     0.0281 H       
  36 H36            0.5267    -4.5454    -2.0626 H       
  37 H37            2.2429    -4.0972    -1.9053 H       
  38 H38            1.9857    -6.4938    -2.5137 H       
  39 H39            2.7366    -6.3087    -0.9107 H       
  40 H40           -0.1086    -6.8809    -1.4264 H       
  41 H41            1.4369    -6.7222     1.0785 H       
  42 H42           -0.2685    -7.2110     0.9366 H       
  43 C43           16.6126     9.7049     8.5522 C.2     
  44 O44           16.6308     8.3627     8.5448 O.3     
  45 O45           17.6507    10.3232     8.5456 O.2     
  46 C46           15.2974    10.4405     8.5624 C.3     
  47 H47           17.4983     7.9355     8.5342 H       
  48 H48           14.4786     9.7210     8.5624 H       
  49 H49           15.2354    11.0615     9.4561 H       
  50 H50           15.2270    11.0712     7.6762 H       
@<TRIPOS>BOND
   1    1    2 1
   2    1    5 1
   3    1   26 1
   4    2    3 2
   5    3    4 1
   6    3   16 1
   7    4    5 2
   8    4    6 1
   9    5   27 1
  10    6    7 am
  11    6   28 1
  12    7    8 1
  13    7   25 2
  14    8    9 ar
  15    8   13 ar
  16    9   10 ar
  17    9   14 1
  18   10   11 ar
  19   10   29 1
  20   11   12 ar
  21   11   30 1
  22   12   13 ar
  23   12   31 1
  24   13   15 1
  25   16   17 2
  26   16   18 am
  27   18   19 1
  28   18   32 1
  29   19   20 1
  30   19   21 1
  31   19   33 1
  32   20   24 1
  33   20   34 1
  34   20   35 1
  35   21   22 1
  36   21   36 1
  37   21   37 1
  38   22   23 1
  39   22   38 1
  40   22   39 1
  41   23   24 1
  42   23   40 1
  43   24   41 1
  44   24   42 1
  45   43   44 1
  46   43   45 2
  47   43   46 1
  48   44   47 1
  49   46   48 1
  50   46   49 1
  51   46   50 1

#	End of record

