#	Name: ASD01913000
#	Creating user name:	WinNT
#	Creation time:	15. 06. 2019 20:00

#	Modifying user name:	WinNT
#	Modification time:	15. 06. 2019 20:00

#	Program:	/corina/corina34_cracker 3.40 0067  02.08.2006

@<TRIPOS>MOLECULE
ASD01913000
  47   50    0    0    0
SMALL
NO_CHARGES


@<TRIPOS>ATOM
   1 C1            -0.0173     1.4278     0.0099 C.2     
   2 C2             0.0021    -0.0041     0.0020 C.1     
   3 C3             0.0180    -1.1779    -0.0044 C.1     
   4 C4             0.0374    -2.6098    -0.0123 C.ar    
   5 C5            -1.1616    -3.3287    -0.0047 C.ar    
   6 C6             1.2554    -3.2957    -0.0335 C.ar    
   7 C7             1.2660    -4.6747    -0.0414 C.ar    
   8 C8             0.0750    -5.3794    -0.0290 C.ar    
   9 C9            -1.1348    -4.7074    -0.0129 C.ar    
  10 N10            1.0315     2.1979     0.0040 N.2     
  11 C11            0.8407     3.5060     0.0140 C.2     
  12 C12           -0.4581     3.8737     0.0237 C.2     
  13 S13           -1.4644     2.4309     0.0214 S.3     
  14 N14            0.2052     6.1747     0.2741 N.am    
  15 C15           -0.9550     5.3022     0.0258 C.3     
  16 S16            0.1066     7.4512     1.3243 S.o2    
  17 O17            1.1213     8.3679     0.9380 O.2     
  18 O18           -1.2684     7.8014     1.4024 O.2     
  19 N19            0.5314     6.8875     2.8224 N.am    
  20 C20            1.9321     6.9192     3.2647 C.3     
  21 C21            2.0075     7.6444     4.6120 C.3     
  22 C22            1.0510     6.9747     5.6014 C.3     
  23 C23           -0.3830     7.0781     5.0767 C.3     
  24 C24           -0.4862     6.3517     3.7368 C.3     
  25 C25            1.9819     4.5148     0.0221 C.3     
  26 C26            1.4544     5.8740    -0.4414 C.3     
  27 H27           -2.1064    -2.8056     0.0078 H       
  28 H28            2.1856    -2.7471    -0.0439 H       
  29 H29            2.2061    -5.2060    -0.0578 H       
  30 H30            0.0896    -6.4593    -0.0360 H       
  31 H31           -2.0601    -5.2642    -0.0032 H       
  32 H32           -1.3978     5.5415    -0.9411 H       
  33 H33           -1.6943     5.4358     0.8155 H       
  34 H34            2.3031     5.9004     3.3768 H       
  35 H35            2.5356     7.4512     2.5292 H       
  36 H36            3.0256     7.5910     4.9975 H       
  37 H37            1.7222     8.6881     4.4799 H       
  38 H38            1.3216     5.9249     5.7141 H       
  39 H39            1.1208     7.4734     6.5681 H       
  40 H40           -1.0662     6.6217     5.7929 H       
  41 H41           -0.6457     8.1271     4.9402 H       
  42 H42           -1.4783     6.5066     3.3126 H       
  43 H43           -0.3121     5.2859     3.8846 H       
  44 H44            2.3817     4.6043     1.0321 H       
  45 H45            2.7688     4.1798    -0.6537 H       
  46 H46            1.2620     5.8439    -1.5138 H       
  47 H47            2.1935     6.6451    -0.2241 H       
@<TRIPOS>BOND
   1    1    2 1
   2    1   10 2
   3    1   13 1
   4    2    3 3
   5    3    4 1
   6    4    5 ar
   7    4    6 ar
   8    5    9 ar
   9    5   27 1
  10    6    7 ar
  11    6   28 1
  12    7    8 ar
  13    7   29 1
  14    8    9 ar
  15    8   30 1
  16    9   31 1
  17   10   11 1
  18   11   12 2
  19   11   25 1
  20   12   13 1
  21   12   15 1
  22   14   15 1
  23   14   16 am
  24   14   26 1
  25   15   32 1
  26   15   33 1
  27   16   17 2
  28   16   18 2
  29   16   19 am
  30   19   20 1
  31   19   24 1
  32   20   21 1
  33   20   34 1
  34   20   35 1
  35   21   22 1
  36   21   36 1
  37   21   37 1
  38   22   23 1
  39   22   38 1
  40   22   39 1
  41   23   24 1
  42   23   40 1
  43   23   41 1
  44   24   42 1
  45   24   43 1
  46   25   26 1
  47   25   44 1
  48   25   45 1
  49   26   46 1
  50   26   47 1

#	End of record

