#	Name: ASD08150198
#	Creating user name:	WinNT
#	Creation time:	15. 06. 2019 21:15

#	Modifying user name:	WinNT
#	Modification time:	15. 06. 2019 21:15

#	Program:	/corina/corina34_cracker 3.40 0067  02.08.2006

@<TRIPOS>MOLECULE
ASD08150198
  50   54    0    0    0
SMALL
NO_CHARGES


@<TRIPOS>ATOM
   1 N1             0.6327     1.2774     0.1222 N.2     
   2 C2             0.5223    -0.0131     0.0321 C.2     
   3 N3             1.5838    -0.8439    -0.1373 N.am    
   4 C4             2.8403    -0.3479    -0.2220 C.2     
   5 C5             3.0003     1.1105    -0.1237 C.ar    
   6 C6             4.2502     1.7216    -0.1993 C.ar    
   7 C7             4.3425     3.0927    -0.1016 C.ar    
   8 C8             3.2024     3.8667     0.0714 C.ar    
   9 C9             1.9583     3.2825     0.1490 C.ar    
  10 C10            1.8387     1.8946     0.0518 C.ar    
  11 O11            3.8005    -1.0806    -0.3733 O.2     
  12 C12           -0.8539    -0.6207     0.1205 C.3     
  13 S13           -2.0703     0.6832     0.4311 S.3     
  14 N14           -5.2092     1.5975     0.9230 N.2     
  15 C15           -6.5012     1.6095     1.0796 C.2     
  16 N16           -6.9940     0.3425     0.9793 N.pl3   
  17 C17           -5.9322    -0.4946     0.7466 C.ar    
  18 N18           -5.7914    -1.8037     0.5646 N.ar    
  19 C19           -4.6021    -2.3283     0.3555 C.ar    
  20 N20           -3.5027    -1.5986     0.3147 N.ar    
  21 C21           -3.5444    -0.2804     0.4862 C.ar    
  22 C22           -4.7922     0.3261     0.7130 C.ar    
  23 C23            1.3666    -2.2898    -0.2285 C.3     
  24 C24            1.2504    -2.6899    -1.6767 C.ar    
  25 C25            2.3897    -2.9434    -2.4174 C.ar    
  26 C26            2.2830    -3.3104    -3.7459 C.ar    
  27 C27            1.0371    -3.4243    -4.3336 C.ar    
  28 C28           -0.1023    -3.1717    -3.5927 C.ar    
  29 C29            0.0042    -2.8089    -2.2630 C.ar    
  30 N30            0.9229    -3.8163    -5.7563 N.pl3   
  31 O31            1.9268    -4.0385    -6.4092 O.2     
  32 O32           -0.1750    -3.9167    -6.2742 O.2     
  33 C33            5.4922     0.8887    -0.3860 C.3     
  34 H34            5.3097     3.5696    -0.1598 H       
  35 H35            3.2930     4.9403     0.1464 H       
  36 H36            1.0788     3.8948     0.2837 H       
  37 H37           -1.0906    -1.1223    -0.8179 H       
  38 H38           -0.8802    -1.3438     0.9357 H       
  39 H39           -7.0951     2.4929     1.2620 H       
  40 H40           -7.9247     0.0807     1.0581 H       
  41 H41           -4.5229    -3.3958     0.2117 H       
  42 H42            2.2076    -2.8130     0.2266 H       
  43 H43            0.4481    -2.5530     0.2960 H       
  44 H44            3.3632    -2.8544    -1.9582 H       
  45 H45            3.1732    -3.5077    -4.3247 H       
  46 H46           -1.0758    -3.2603    -4.0520 H       
  47 H47           -0.8861    -2.6151    -1.6832 H       
  48 H48            5.6280     0.6713    -1.4455 H       
  49 H49            6.3572     1.4377    -0.0140 H       
  50 H50            5.3897    -0.0454     0.1663 H       
@<TRIPOS>BOND
   1    1    2 2
   2    1   10 1
   3    2    3 1
   4    2   12 1
   5    3    4 am
   6    3   23 1
   7    4    5 1
   8    4   11 2
   9    5    6 ar
  10    5   10 ar
  11    6    7 ar
  12    6   33 1
  13    7    8 ar
  14    7   34 1
  15    8    9 ar
  16    8   35 1
  17    9   10 ar
  18    9   36 1
  19   12   13 1
  20   12   37 1
  21   12   38 1
  22   13   21 1
  23   14   15 2
  24   14   22 1
  25   15   16 1
  26   15   39 1
  27   16   17 1
  28   16   40 1
  29   17   18 ar
  30   17   22 ar
  31   18   19 ar
  32   19   20 ar
  33   19   41 1
  34   20   21 ar
  35   21   22 ar
  36   23   24 1
  37   23   42 1
  38   23   43 1
  39   24   25 ar
  40   24   29 ar
  41   25   26 ar
  42   25   44 1
  43   26   27 ar
  44   26   45 1
  45   27   28 ar
  46   27   30 1
  47   28   29 ar
  48   28   46 1
  49   29   47 1
  50   30   31 2
  51   30   32 2
  52   33   48 1
  53   33   49 1
  54   33   50 1

#	End of record

