#	Name: ASD00170103
#	Creating user name:	WinNT
#	Creation time:	15. 06. 2019 18:31

#	Modifying user name:	WinNT
#	Modification time:	15. 06. 2019 18:31

#	Program:	/corina/corina34_cracker 3.40 0067  02.08.2006

@<TRIPOS>MOLECULE
ASD00170103
  36   38    0    0    0
SMALL
NO_CHARGES


@<TRIPOS>ATOM
   1 C1            -0.0346     1.3439    -0.0679 C.2     
   2 C2            -0.0077     0.0063    -0.0878 C.2     
   3 C3            -1.3328    -0.5855     0.0180 C.2     
   4 C4            -2.3275     0.3563     0.1157 C.2     
   5 S5            -1.6799     1.9319     0.0885 S.3     
   6 N6            -3.6716     0.0653     0.2263 N.pl3   
   7 Br7            1.4945     2.4503    -0.1844 Br      
   8 C8            -1.5713    -1.9834     0.0195 C.2     
   9 O9            -1.7716    -2.5682    -1.0298 O.2     
  10 C10            1.2382    -0.7873    -0.2056 C.ar    
  11 C11            2.1927    -0.7466     0.8102 C.ar    
  12 C12            3.3506    -1.4883     0.6951 C.ar    
  13 C13            3.5655    -2.2711    -0.4252 C.ar    
  14 C14            2.6222    -2.3155    -1.4361 C.ar    
  15 C15            1.4580    -1.5824    -1.3299 C.ar    
  16 C16           -1.5767    -2.7315     1.2960 C.ar    
  17 C17           -1.9185    -4.0846     1.3138 C.ar    
  18 C18           -1.9216    -4.7763     2.5074 C.ar    
  19 C19           -1.5870    -4.1317     3.6851 C.ar    
  20 C20           -1.2473    -2.7904     3.6742 C.ar    
  21 C21           -1.2346    -2.0886     2.4865 C.ar    
  22 C22            4.8325    -3.0782    -0.5449 C.3     
  23 F23            4.6332    -4.3447     0.0151 F       
  24 F24            5.1733    -3.2136    -1.8950 F       
  25 F25            5.8671    -2.4257     0.1341 F       
  26 H26           -3.9759    -0.8534     0.1612 H       
  27 H27           -4.3123     0.7794     0.3693 H       
  28 H28            2.0262    -0.1356     1.6850 H       
  29 H29            4.0908    -1.4573     1.4809 H       
  30 H30            2.7956    -2.9281    -2.3085 H       
  31 H31            0.7223    -1.6178    -2.1198 H       
  32 H32           -2.1802    -4.5888     0.3954 H       
  33 H33           -2.1862    -5.8233     2.5227 H       
  34 H34           -1.5914    -4.6776     4.6169 H       
  35 H35           -0.9871    -2.2930     4.5968 H       
  36 H36           -0.9693    -1.0417     2.4793 H       
@<TRIPOS>BOND
   1    1    2 2
   2    1    7 1
   3    1    5 1
   4    2    3 1
   5    2   10 1
   6    3    4 2
   7    3    8 1
   8    4    5 1
   9    4    6 1
  10    6   26 1
  11    6   27 1
  12    8    9 2
  13    8   16 1
  14   10   11 ar
  15   10   15 ar
  16   11   12 ar
  17   11   28 1
  18   12   13 ar
  19   12   29 1
  20   13   14 ar
  21   13   22 1
  22   14   15 ar
  23   14   30 1
  24   15   31 1
  25   16   17 ar
  26   16   21 ar
  27   17   18 ar
  28   17   32 1
  29   18   19 ar
  30   18   33 1
  31   19   20 ar
  32   19   34 1
  33   20   21 ar
  34   20   35 1
  35   21   36 1
  36   22   23 1
  37   22   24 1
  38   22   25 1

#	End of record

