#	Name: ASD05303010
#	Creating user name:	WinNT
#	Creation time:	15. 06. 2019 20:58

#	Modifying user name:	WinNT
#	Modification time:	15. 06. 2019 20:58

#	Program:	/corina/corina34_cracker 3.40 0067  02.08.2006

@<TRIPOS>MOLECULE
ASD05303010
  33   35    0    0    0
SMALL
NO_CHARGES


@<TRIPOS>ATOM
   1 C1             1.1883     1.1930    -3.7219 C.ar    
   2 C2             1.0730    -0.1660    -3.4982 C.ar    
   3 C3             1.8914    -0.7875    -2.5712 C.ar    
   4 C4             2.8247    -0.0448    -1.8699 C.ar    
   5 C5             2.9460     1.3247    -2.0952 C.ar    
   6 C6             2.1210     1.9390    -3.0243 C.ar    
   7 O7             3.8657     2.0561    -1.4157 O.3     
   8 N8             3.6584    -0.6603    -0.9181 N.am    
   9 C9             4.4536     1.5371    -0.3077 C.ar    
  10 C10            4.3676     0.1738    -0.0341 C.ar    
  11 C11            4.9725    -0.3511     1.0942 C.ar    
  12 C12            5.6641     0.4828     1.9553 C.ar    
  13 C13            5.7497     1.8361     1.6881 C.ar    
  14 C14            5.1469     2.3650     0.5613 C.ar    
  15 C15            3.7735    -2.0016    -0.8551 C.2     
  16 O16            2.8510    -2.7085    -1.2130 O.2     
  17 N17            4.9109    -2.5596    -0.3953 N.am    
  18 C18            4.9218    -3.9643     0.0204 C.3     
  19 C19            6.1365    -1.7613    -0.3113 C.3     
  20 H20            0.5500     1.6740    -4.4482 H       
  21 H21            0.3436    -0.7433    -4.0469 H       
  22 H22            1.8016    -1.8493    -2.3955 H       
  23 H23            2.2067     3.0005    -3.2039 H       
  24 H24            4.9048    -1.4086     1.3025 H       
  25 H25            6.1371     0.0758     2.8369 H       
  26 H26            6.2891     2.4840     2.3631 H       
  27 H27            5.2176     3.4232     0.3576 H       
  28 H28            5.1732    -4.5939    -0.8331 H       
  29 H29            5.6636    -4.1048     0.8066 H       
  30 H30            3.9366    -4.2394     0.3971 H       
  31 H31            6.4079    -1.6214     0.7350 H       
  32 H32            6.9435    -2.2789    -0.8299 H       
  33 H33            5.9699    -0.7898    -0.7766 H       
@<TRIPOS>BOND
   1    1    2 ar
   2    1    6 ar
   3    1   20 1
   4    2    3 ar
   5    2   21 1
   6    3    4 ar
   7    3   22 1
   8    4    5 ar
   9    4    8 1
  10    5    6 ar
  11    5    7 1
  12    6   23 1
  13    7    9 1
  14    8   10 1
  15    8   15 am
  16    9   10 ar
  17    9   14 ar
  18   10   11 ar
  19   11   12 ar
  20   11   24 1
  21   12   13 ar
  22   12   25 1
  23   13   14 ar
  24   13   26 1
  25   14   27 1
  26   15   16 2
  27   15   17 am
  28   17   18 1
  29   17   19 1
  30   18   28 1
  31   18   29 1
  32   18   30 1
  33   19   31 1
  34   19   32 1
  35   19   33 1

#	End of record

