#	Name: ASD01911152
#	Creating user name:	WinNT
#	Creation time:	15. 06. 2019 19:57

#	Modifying user name:	WinNT
#	Modification time:	15. 06. 2019 19:57

#	Program:	/corina/corina34_cracker 3.40 0067  02.08.2006

@<TRIPOS>MOLECULE
ASD01911152
  41   44    0    0    0
SMALL
NO_CHARGES


@<TRIPOS>ATOM
   1 C1            -0.0167     1.3769     0.0096 C.ar    
   2 C2             0.0021    -0.0041     0.0020 C.ar    
   3 C3             1.2148    -0.6805    -0.0132 C.ar    
   4 C4             2.4052     0.0345    -0.0208 C.ar    
   5 C5             2.3798     1.4153    -0.0132 C.ar    
   6 C6             1.1705     2.0860     0.0021 C.ar    
   7 N7             1.2372    -2.0811    -0.0205 N.pl3   
   8 N8             0.3284    -2.9225     0.6337 N.2     
   9 C9             0.6734    -4.1704     0.3941 C.2     
  10 C10            1.8185    -4.1609    -0.4243 C.2     
  11 C11            2.1431    -2.8641    -0.6699 C.2     
  12 C12           -0.0242    -5.3784     0.9003 C.ar    
  13 C13           -1.1530    -5.2476     1.7067 C.ar    
  14 C14           -1.7979    -6.3745     2.1748 C.ar    
  15 C15           -1.3253    -7.6320     1.8452 C.ar    
  16 C16           -0.2048    -7.7677     1.0455 C.ar    
  17 C17            0.4439    -6.6476     0.5664 C.ar    
  18 N18            3.2143    -2.4162    -1.4401 N.am    
  19 C19            4.0434    -3.3049    -2.0227 C.2     
  20 C20            5.1831    -2.8285    -2.8420 C.2     
  21 O21            3.8567    -4.4967    -1.8761 O.2     
  22 C22            6.1990    -3.6218    -3.5591 C.2     
  23 N23            6.9492    -2.7022    -4.1052 N.2     
  24 O24            6.5261    -1.6081    -3.8149 O.3     
  25 N25            5.5390    -1.5915    -3.1170 N.2     
  26 C26            6.3372    -5.1202    -3.6414 C.3     
  27 H27           -0.9595     1.9036     0.0169 H       
  28 H28           -0.9254    -0.5573     0.0083 H       
  29 H29            3.3499    -0.4887    -0.0323 H       
  30 H30            3.3053     1.9720    -0.0190 H       
  31 H31            1.1533     3.1658     0.0080 H       
  32 H32            2.3433    -5.0292    -0.7945 H       
  33 H33           -1.5225    -4.2662     1.9652 H       
  34 H34           -2.6729    -6.2743     2.7999 H       
  35 H35           -1.8327    -8.5112     2.2140 H       
  36 H36            0.1601    -8.7519     0.7915 H       
  37 H37            1.3184    -6.7547    -0.0582 H       
  38 H38            3.3634    -1.4649    -1.5570 H       
  39 H39            5.7732    -5.4906    -4.4974 H       
  40 H40            7.3888    -5.3822    -3.7583 H       
  41 H41            5.9497    -5.5715    -2.7281 H       
@<TRIPOS>BOND
   1    1    2 ar
   2    1    6 ar
   3    1   27 1
   4    2    3 ar
   5    2   28 1
   6    3    4 ar
   7    3    7 1
   8    4    5 ar
   9    4   29 1
  10    5    6 ar
  11    5   30 1
  12    6   31 1
  13    7    8 1
  14    7   11 1
  15    8    9 2
  16    9   10 1
  17    9   12 1
  18   10   11 2
  19   10   32 1
  20   11   18 1
  21   12   13 ar
  22   12   17 ar
  23   13   14 ar
  24   13   33 1
  25   14   15 ar
  26   14   34 1
  27   15   16 ar
  28   15   35 1
  29   16   17 ar
  30   16   36 1
  31   17   37 1
  32   18   19 am
  33   18   38 1
  34   19   20 1
  35   19   21 2
  36   20   22 1
  37   20   25 2
  38   22   23 2
  39   22   26 1
  40   23   24 1
  41   24   25 1
  42   26   39 1
  43   26   40 1
  44   26   41 1

#	End of record

