#	Name: ASD01815581
#	Creating user name:	WinNT
#	Creation time:	15. 06. 2019 19:33

#	Modifying user name:	WinNT
#	Modification time:	15. 06. 2019 19:33

#	Program:	/corina/corina34_cracker 3.40 0067  02.08.2006

@<TRIPOS>MOLECULE
ASD01815581
  34   36    0    0    0
SMALL
NO_CHARGES


@<TRIPOS>ATOM
   1 C1            -0.0732     1.3175     0.1690 C.ar    
   2 C2            -0.0302    -0.0683     0.1575 C.ar    
   3 C3             1.1757    -0.7361     0.0906 C.ar    
   4 C4             2.3682    -0.0170     0.0337 C.ar    
   5 C5             2.3230     1.3875     0.0454 C.ar    
   6 C6             1.0952     2.0506     0.1134 C.ar    
   7 N7             3.5793    -0.6732    -0.0330 N.pl3   
   8 C8             4.7514    -0.0284    -0.0889 C.2     
   9 C9             4.8337     1.3495    -0.0834 C.2     
  10 C10            3.5911     2.1359    -0.0152 C.2     
  11 O11            3.6103     3.3543    -0.0081 O.2     
  12 C12            6.1398     2.0201    -0.1451 C.2     
  13 O13            7.1596     1.3608    -0.2016 O.2     
  14 O14            6.2071     3.3665    -0.1391 O.3     
  15 C15            3.5837    -2.1382    -0.0425 C.3     
  16 C16            3.7133    -2.6493     1.3692 C.ar    
  17 C17            2.5904    -2.7686     2.1661 C.ar    
  18 C18            2.7087    -3.2380     3.4628 C.ar    
  19 C19            3.9544    -3.5881     3.9609 C.ar    
  20 C20            5.0770    -3.4675     3.1603 C.ar    
  21 C21            4.9547    -3.0038     1.8640 C.ar    
  22 F22            1.2002    -2.0868     0.0807 F       
  23 F23            1.0515     3.4009     0.1243 F       
  24 F24            4.0723    -4.0461     5.2264 F       
  25 F25            1.6115    -3.3544     4.2426 F       
  26 H26           -1.0250     1.8255     0.2172 H       
  27 H27           -0.9506    -0.6314     0.2017 H       
  28 H28            5.6629    -0.6055    -0.1395 H       
  29 H29            7.0885     3.7622    -0.1812 H       
  30 H30            2.6520    -2.5015    -0.4763 H       
  31 H31            4.4247    -2.4952    -0.6369 H       
  32 H32            1.6207    -2.4952     1.7771 H       
  33 H33            6.0479    -3.7399     3.5471 H       
  34 H34            5.8311    -2.9100     1.2398 H       
@<TRIPOS>BOND
   1    1    2 ar
   2    1    6 ar
   3    1   26 1
   4    2    3 ar
   5    2   27 1
   6    3    4 ar
   7    3   22 1
   8    4    5 ar
   9    4    7 1
  10    5    6 ar
  11    5   10 1
  12    6   23 1
  13    7    8 1
  14    7   15 1
  15    8    9 2
  16    8   28 1
  17    9   10 1
  18    9   12 1
  19   10   11 2
  20   12   13 2
  21   12   14 1
  22   14   29 1
  23   15   16 1
  24   15   30 1
  25   15   31 1
  26   16   17 ar
  27   16   21 ar
  28   17   18 ar
  29   17   32 1
  30   18   19 ar
  31   18   25 1
  32   19   20 ar
  33   19   24 1
  34   20   21 ar
  35   20   33 1
  36   21   34 1

#	End of record

