#	Name: ASD01720148
#	Creating user name:	WinNT
#	Creation time:	15. 06. 2019 19:23

#	Modifying user name:	WinNT
#	Modification time:	15. 06. 2019 19:23

#	Program:	/corina/corina34_cracker 3.40 0067  02.08.2006

@<TRIPOS>MOLECULE
ASD01720148
  92   96    0    0    0
SMALL
NO_CHARGES


@<TRIPOS>ATOM
   1 C1             3.0430    -0.7784    -4.0485 C.ar    
   2 C2             2.9218    -1.2500    -5.3393 C.ar    
   3 C3             3.7720    -0.7804    -6.3232 C.ar    
   4 C4             4.7311     0.1597    -6.0097 C.ar    
   5 C5             4.8519     0.6407    -4.7114 C.ar    
   6 C6             4.0116     0.1640    -3.7306 C.ar    
   7 C7             4.1079     0.6176    -2.2955 C.3     
   8 C8             5.9035     1.6862    -4.4490 C.3     
   9 C9             6.2474     1.7503    -2.9617 C.3     
  10 N10            4.9839     1.7907    -2.2060 N.am    
  11 C11            7.0507     2.9933    -2.6775 C.2     
  12 N12            8.1676     2.9169    -1.9270 N.am    
  13 O13            6.6921     4.0624    -3.1240 O.2     
  14 C14            8.9485     4.1252    -1.6507 C.3     
  15 C15           10.1567     3.7646    -0.7841 C.3     
  16 C16           10.9723     5.0265    -0.4955 C.3     
  17 C17           12.1805     4.6659     0.3710 C.3     
  18 C18           12.9961     5.9278     0.6596 C.3     
  19 C19           14.1154     5.5956     1.6123 C.2     
  20 N20           13.5583     6.4451    -0.5951 N.3     
  21 N21           13.8682     5.4939     2.9333 N.am    
  22 O22           15.2388     5.4197     1.1903 O.2     
  23 C23           14.9564     5.1710     3.8595 C.3     
  24 C24           14.4110     5.1165     5.2880 C.3     
  25 C25           13.4329     3.9765     5.4091 C.ar    
  26 C26           15.5496     4.9062     6.2526 C.ar    
  27 C27           16.3002     3.7468     6.1937 C.ar    
  28 C28           17.3445     3.5539     7.0786 C.ar    
  29 C29           17.6385     4.5204     8.0221 C.ar    
  30 C30           16.8885     5.6801     8.0805 C.ar    
  31 C31           15.8469     5.8750     7.1927 C.ar    
  32 C32           12.8393     1.6984     4.9729 C.ar    
  33 C33           13.7366     2.7440     4.8617 C.ar    
  34 C34           12.2343     4.1618     6.0725 C.ar    
  35 C35           11.3370     3.1161     6.1836 C.ar    
  36 C36           11.6381     1.8853     5.6309 C.ar    
  37 C37            4.6462     2.8620    -1.4612 C.2     
  38 O38            5.4294     3.7781    -1.3265 O.2     
  39 C39            3.2954     2.9215    -0.7957 C.3     
  40 C40            3.1674     4.2327    -0.0178 C.3     
  41 C41            1.8166     4.2922     0.6476 C.2     
  42 C42            1.4479     5.4620     1.4609 C.ar    
  43 O43            1.0336     3.3763     0.5130 O.2     
  44 C44            1.9932     7.6155     2.3776 C.ar    
  45 C45            2.3461     6.5230     1.6140 C.ar    
  46 C46            0.1952     5.5210     2.0801 C.ar    
  47 C47           -0.1428     6.6204     2.8405 C.ar    
  48 C48            0.7537     7.6640     2.9915 C.ar    
  49 H49            2.3763    -1.1418    -3.2804 H       
  50 H50            2.1662    -1.9832    -5.5800 H       
  51 H51            3.6856    -1.1491    -7.3347 H       
  52 H52            5.3944     0.5252    -6.7798 H       
  53 H53            3.1146     0.8779    -1.9300 H       
  54 H54            4.5179    -0.1885    -1.6871 H       
  55 H55            6.8023     1.4405    -5.0145 H       
  56 H56            5.5314     2.6581    -4.7731 H       
  57 H57            6.8201     0.8675    -2.6774 H       
  58 H58            8.4544     2.0619    -1.5699 H       
  59 H59            9.2916     4.5589    -2.5900 H       
  60 H60            8.3256     4.8476    -1.1231 H       
  61 H61            9.8137     3.3310     0.1552 H       
  62 H62           10.7796     3.0422    -1.3117 H       
  63 H63           11.3153     5.4601    -1.4349 H       
  64 H64           10.3494     5.7489     0.0321 H       
  65 H65           11.8375     4.2322     1.3104 H       
  66 H66           12.8034     3.9435    -0.1565 H       
  67 H67           12.3503     6.6833     1.1071 H       
  68 H68           14.1611     5.7626    -1.0297 H       
  69 H69           12.8268     6.7356    -1.2265 H       
  70 H70           12.9698     5.6346     3.2708 H       
  71 H71           15.3824     4.2029     3.5961 H       
  72 H72           15.7285     5.9376     3.7943 H       
  73 H73           13.9066     6.0544     5.5203 H       
  74 H74           16.0705     2.9917     5.4565 H       
  75 H75           17.9305     2.6478     7.0330 H       
  76 H76           18.4539     4.3693     8.7139 H       
  77 H77           17.1179     6.4351     8.8178 H       
  78 H78           15.2632     6.7827     7.2359 H       
  79 H79           13.0763     0.7356     4.5446 H       
  80 H80           14.6748     2.5982     4.3470 H       
  81 H81           11.9991     5.1233     6.5043 H       
  82 H82           10.4009     3.2606     6.7024 H       
  83 H83           10.9371     1.0684     5.7177 H       
  84 H84            2.5142     2.8713    -1.5542 H       
  85 H85            3.1907     2.0806    -0.1102 H       
  86 H86            3.9486     4.2829     0.7407 H       
  87 H87            3.2721     5.0736    -0.7034 H       
  88 H88            2.6857     8.4357     2.4968 H       
  89 H89            3.3136     6.4866     1.1356 H       
  90 H90           -0.5056     4.7077     1.9626 H       
  91 H91           -1.1097     6.6674     3.3193 H       
  92 H92            0.4833     8.5222     3.5889 H       
@<TRIPOS>BOND
   1    1    2 ar
   2    1    6 ar
   3    1   49 1
   4    2    3 ar
   5    2   50 1
   6    3    4 ar
   7    3   51 1
   8    4    5 ar
   9    4   52 1
  10    5    6 ar
  11    5    8 1
  12    6    7 1
  13    7   10 1
  14    7   53 1
  15    7   54 1
  16    8    9 1
  17    8   55 1
  18    8   56 1
  19    9   10 1
  20    9   11 1
  21    9   57 1
  22   10   37 am
  23   11   12 am
  24   11   13 2
  25   12   14 1
  26   12   58 1
  27   14   15 1
  28   14   59 1
  29   14   60 1
  30   15   16 1
  31   15   61 1
  32   15   62 1
  33   16   17 1
  34   16   63 1
  35   16   64 1
  36   17   18 1
  37   17   65 1
  38   17   66 1
  39   18   19 1
  40   18   20 1
  41   18   67 1
  42   19   21 am
  43   19   22 2
  44   20   68 1
  45   20   69 1
  46   21   23 1
  47   21   70 1
  48   23   24 1
  49   23   71 1
  50   23   72 1
  51   24   25 1
  52   24   26 1
  53   24   73 1
  54   25   34 ar
  55   25   33 ar
  56   26   27 ar
  57   26   31 ar
  58   27   28 ar
  59   27   74 1
  60   28   29 ar
  61   28   75 1
  62   29   30 ar
  63   29   76 1
  64   30   31 ar
  65   30   77 1
  66   31   78 1
  67   32   33 ar
  68   32   36 ar
  69   32   79 1
  70   33   80 1
  71   34   35 ar
  72   34   81 1
  73   35   36 ar
  74   35   82 1
  75   36   83 1
  76   37   38 2
  77   37   39 1
  78   39   40 1
  79   39   84 1
  80   39   85 1
  81   40   41 1
  82   40   86 1
  83   40   87 1
  84   41   42 1
  85   41   43 2
  86   42   46 ar
  87   42   45 ar
  88   44   45 ar
  89   44   48 ar
  90   44   88 1
  91   45   89 1
  92   46   47 ar
  93   46   90 1
  94   47   48 ar
  95   47   91 1
  96   48   92 1

#	End of record

