#	Name: ASD09116404
#	Creating user name:	WinNT
#	Creation time:	15. 06. 2019 21:21

#	Modifying user name:	WinNT
#	Modification time:	15. 06. 2019 21:21

#	Program:	/corina/corina34_cracker 3.40 0067  02.08.2006

@<TRIPOS>MOLECULE
ASD09116404
  76   81    0    0    0
SMALL
NO_CHARGES


@<TRIPOS>ATOM
   1 N1            -0.7031     4.0492     0.1856 N.2     
   2 N2            -1.2979     5.2818     0.4999 N.pl3   
   3 C3             0.5935     4.2451     0.1612 C.2     
   4 N4             0.8460     5.5290     0.4419 N.2     
   5 C5            -0.2855     6.1680     0.6489 C.2     
   6 N6            -0.4170     7.5072     0.9633 N.pl3   
   7 C7            -2.6631     5.5418     0.6325 C.ar    
   8 N8             1.5544     3.2720    -0.1128 N.pl3   
   9 C9             2.9041     3.6311    -0.2199 C.ar    
  10 C10            3.2625     4.9111    -0.6396 C.ar    
  11 C11            3.9003     2.7193     0.0958 C.ar    
  12 N12            5.1738     3.0505    -0.0023 N.ar    
  13 C13            5.5504     4.2548    -0.4021 C.ar    
  14 C14            4.6071     5.2222    -0.7305 C.ar    
  15 N15           -3.0751     6.5522     1.3837 N.ar    
  16 N16           -4.3200     6.8281     1.5469 N.ar    
  17 C17           -5.2709     6.1114     0.9694 C.ar    
  18 C18           -4.9299     5.0384     0.1411 C.ar    
  19 C19           -3.5948     4.7400    -0.0317 C.ar    
  20 C20           -6.7068     6.3935     1.1989 C.ar    
  21 C21           -7.5537     5.3406     1.5488 C.ar    
  22 C22           -6.9792     3.9634     1.7377 C.3     
  23 C23           -6.6904     3.2919     0.3978 C.3     
  24 C24           -6.0095     4.2662    -0.5598 C.3     
  25 C25           -7.2154     7.6809     1.0669 C.ar    
  26 C26           -8.5638     7.9070     1.2651 C.ar    
  27 C27           -9.4033     6.8572     1.5908 C.ar    
  28 C28           -8.8994     5.5758     1.7320 C.ar    
  29 N29            6.9071     4.5581    -0.4899 N.3     
  30 C30            7.2665     5.6530     0.4371 C.3     
  31 C31            8.3714     6.4795    -0.2467 C.3     
  32 C32            8.5881     5.8051    -1.6208 C.3     
  33 C33            7.2564     5.0466    -1.8484 C.3     
  34 C34            7.4607     3.8729    -2.8084 C.3     
  35 C35            6.1063     3.2426    -3.1387 C.3     
  36 C36            5.2562     4.2429    -3.9246 C.3     
  37 C37            6.3215     1.9837    -3.9812 C.3     
  38 C38            7.0492     0.9289    -3.1452 C.3     
  39 C39            3.8588     3.6609    -4.1470 C.3     
  40 H40            0.3720     8.0649     1.0496 H       
  41 H41           -1.2983     7.8896     1.0976 H       
  42 H42            1.2881     2.3466    -0.2292 H       
  43 H43            2.5080     5.6427    -0.8884 H       
  44 H44            3.6307     1.7270     0.4260 H       
  45 H45            4.9205     6.2031    -1.0560 H       
  46 H46           -3.2813     3.9120    -0.6503 H       
  47 H47           -6.0522     4.0386     2.3060 H       
  48 H48           -7.6900     3.3540     2.2959 H       
  49 H49           -6.0385     2.4335     0.5597 H       
  50 H50           -7.6276     2.9519    -0.0426 H       
  51 H51           -6.7517     4.9622    -0.9507 H       
  52 H52           -5.5715     3.7083    -1.3874 H       
  53 H53           -6.5596     8.5000     0.8110 H       
  54 H54           -8.9631     8.9056     1.1659 H       
  55 H55          -10.4580     7.0384     1.7362 H       
  56 H56           -9.5606     4.7603     1.9854 H       
  57 H57            6.3957     6.2811     0.6254 H       
  58 H58            7.6386     5.2390     1.3743 H       
  59 H59            8.0453     7.5111    -0.3788 H       
  60 H60            9.2888     6.4442     0.3409 H       
  61 H61            8.7432     6.5538    -2.3977 H       
  62 H62            9.4263     5.1095    -1.5812 H       
  63 H63            6.4879     5.7226    -2.2235 H       
  64 H64            7.9282     4.2309    -3.7257 H       
  65 H65            8.1036     3.1279    -2.3397 H       
  66 H66            5.5936     2.9777    -2.2140 H       
  67 H67            5.1770     5.1732    -3.3621 H       
  68 H68            5.7253     4.4400    -4.8885 H       
  69 H69            5.3563     1.5912    -4.3012 H       
  70 H70            6.9217     2.2307    -4.8569 H       
  71 H71            6.4256     0.6430    -2.2982 H       
  72 H72            7.2497     0.0521    -3.7610 H       
  73 H73            7.9906     1.3400    -2.7809 H       
  74 H74            3.9380     2.7306    -4.7094 H       
  75 H75            3.3897     3.4638    -3.1830 H       
  76 H76            3.2533     4.3735    -4.7068 H       
@<TRIPOS>BOND
   1    1    2 1
   2    1    3 2
   3    2    7 1
   4    2    5 1
   5    3    4 1
   6    3    8 1
   7    4    5 2
   8    5    6 1
   9    6   40 1
  10    6   41 1
  11    7   15 ar
  12    7   19 ar
  13    8    9 1
  14    8   42 1
  15    9   10 ar
  16    9   11 ar
  17   10   14 ar
  18   10   43 1
  19   11   12 ar
  20   11   44 1
  21   12   13 ar
  22   13   14 ar
  23   13   29 1
  24   14   45 1
  25   15   16 ar
  26   16   17 ar
  27   17   18 ar
  28   17   20 1
  29   18   19 ar
  30   18   24 1
  31   19   46 1
  32   20   21 ar
  33   20   25 ar
  34   21   22 1
  35   21   28 ar
  36   22   23 1
  37   22   47 1
  38   22   48 1
  39   23   24 1
  40   23   49 1
  41   23   50 1
  42   24   51 1
  43   24   52 1
  44   25   26 ar
  45   25   53 1
  46   26   27 ar
  47   26   54 1
  48   27   28 ar
  49   27   55 1
  50   28   56 1
  51   29   30 1
  52   29   33 1
  53   30   31 1
  54   30   57 1
  55   30   58 1
  56   31   32 1
  57   31   59 1
  58   31   60 1
  59   32   33 1
  60   32   61 1
  61   32   62 1
  62   33   34 1
  63   33   63 1
  64   34   35 1
  65   34   64 1
  66   34   65 1
  67   35   36 1
  68   35   37 1
  69   35   66 1
  70   36   39 1
  71   36   67 1
  72   36   68 1
  73   37   38 1
  74   37   69 1
  75   37   70 1
  76   38   71 1
  77   38   72 1
  78   38   73 1
  79   39   74 1
  80   39   75 1
  81   39   76 1

#	End of record

