#	Name: ASD04230138
#	Creating user name:	WinNT
#	Creation time:	15. 06. 2019 20:48

#	Modifying user name:	WinNT
#	Modification time:	15. 06. 2019 20:48

#	Program:	/corina/corina34_cracker 3.40 0067  02.08.2006

@<TRIPOS>MOLECULE
ASD04230138
  39   42    0    0    0
SMALL
NO_CHARGES


@<TRIPOS>ATOM
   1 C1            -0.0201     1.3790     0.0494 C.ar    
   2 C2            -0.0003    -0.0082     0.0380 C.ar    
   3 C3             1.1849    -0.6862     0.0293 C.ar    
   4 C4             2.3957     0.0212     0.0423 C.ar    
   5 C5             2.3815     1.4276     0.0206 C.ar    
   6 C6             1.1610     2.0997     0.0379 C.ar    
   7 C7             3.6343    -0.6710     0.0722 C.2     
   8 C8             4.7886     0.0708     0.2855 C.2     
   9 C9             4.6293     1.5213     0.4959 C.2     
  10 O10            3.5429     2.1221    -0.0388 O.3     
  11 C11            6.1166    -0.5650     0.3012 C.2     
  12 N12            7.2188     0.1818     0.5109 N.am    
  13 O13            6.2189    -1.7642     0.1251 O.2     
  14 C14            8.4676    -0.4350     0.6381 C.ar    
  15 C15            9.6062     0.1933     0.1482 C.ar    
  16 C16           10.8426    -0.4123     0.2721 C.ar    
  17 C17           10.9542    -1.6448     0.8828 C.ar    
  18 C18            9.8166    -2.2839     1.3780 C.ar    
  19 C19            8.5706    -1.6710     1.2583 C.ar    
  20 C20            9.9337    -3.6056     2.0332 C.2     
  21 O21            5.4494     2.1572     1.1312 O.2     
  22 O22            1.1309     3.4591     0.0425 O.3     
  23 C23           11.0860    -4.3135     2.2276 C.2     
  24 N24            8.9129    -4.3393     2.5597 N.pl3   
  25 N25            9.4599    -5.5196     3.0791 N.2     
  26 C26           10.7534    -5.5010     2.8797 C.2     
  27 H27           -0.9655     1.9009     0.0628 H       
  28 H28           -0.9306    -0.5567     0.0364 H       
  29 H29            1.1898    -1.7661     0.0129 H       
  30 H30            3.6777    -1.7412    -0.0663 H       
  31 H31            7.1460     1.1470     0.5735 H       
  32 H32            9.5248     1.1576    -0.3313 H       
  33 H33           11.7242     0.0806    -0.1105 H       
  34 H34           11.9218    -2.1151     0.9771 H       
  35 H35            7.6870    -2.1610     1.6398 H       
  36 H36            1.1112     3.8551    -0.8395 H       
  37 H37           12.0779    -4.0083     1.9289 H       
  38 H38            7.9759    -4.0890     2.5725 H       
  39 H39           11.4472    -6.2759     3.1708 H       
@<TRIPOS>BOND
   1    1    2 ar
   2    1    6 ar
   3    1   27 1
   4    2    3 ar
   5    2   28 1
   6    3    4 ar
   7    3   29 1
   8    4    5 ar
   9    4    7 1
  10    5    6 ar
  11    5   10 1
  12    6   22 1
  13    7    8 2
  14    7   30 1
  15    8    9 1
  16    8   11 1
  17    9   10 1
  18    9   21 2
  19   11   12 am
  20   11   13 2
  21   12   14 1
  22   12   31 1
  23   14   15 ar
  24   14   19 ar
  25   15   16 ar
  26   15   32 1
  27   16   17 ar
  28   16   33 1
  29   17   18 ar
  30   17   34 1
  31   18   19 ar
  32   18   20 1
  33   19   35 1
  34   20   24 1
  35   20   23 2
  36   22   36 1
  37   23   26 1
  38   23   37 1
  39   24   25 1
  40   24   38 1
  41   25   26 2
  42   26   39 1

#	End of record

