#	Name: ASD00170338
#	Creating user name:	WinNT
#	Creation time:	15. 06. 2019 18:31

#	Modifying user name:	WinNT
#	Modification time:	15. 06. 2019 18:31

#	Program:	/corina/corina34_cracker 3.40 0067  02.08.2006

@<TRIPOS>MOLECULE
ASD00170338
  39   41    0    0    0
SMALL
NO_CHARGES


@<TRIPOS>ATOM
   1 C1            -0.0185     1.5118     0.0104 C.3     
   2 C2             0.0021    -0.0041     0.0020 C.2     
   3 C3             1.0772    -0.7300    -0.3285 C.2     
   4 C4             2.3997    -0.0976    -0.7337 C.3     
   5 C5             2.1396     1.3715    -1.0822 C.3     
   6 N6             1.3687     1.9995    -0.0003 N.3     
   7 C7             0.8277    -2.1566    -0.2541 C.2     
   8 C8            -0.4487    -2.4621     0.1361 C.2     
   9 S9            -1.3495    -1.0437     0.4138 S.3     
  10 C10            1.8395    -3.1688    -0.5645 C.2     
  11 O11            2.5681    -3.5908     0.3147 O.2     
  12 N12            1.9639    -3.6332    -1.8236 N.am    
  13 N13            2.9318    -4.6016    -2.1207 N.pl3   
  14 C14            3.0608    -5.0828    -3.4255 C.ar    
  15 C15            4.0200    -6.0430    -3.7217 C.ar    
  16 C16            4.1445    -6.5170    -5.0129 C.ar    
  17 C17            3.3157    -6.0369    -6.0103 C.ar    
  18 C18            2.3601    -5.0807    -5.7190 C.ar    
  19 C19            2.2264    -4.6065    -4.4288 C.ar    
  20 C20            1.4110     3.4642    -0.1051 C.3     
  21 N21           -0.9390    -3.7457     0.2842 N.pl3   
  22 H22           -0.5411     1.8756    -0.8743 H       
  23 H23           -0.5240     1.8660     0.9087 H       
  24 H24            3.1061    -0.1598     0.0941 H       
  25 H25            2.8042    -0.6159    -1.6031 H       
  26 H26            3.0905     1.8911    -1.2005 H       
  27 H27            1.5745     1.4301    -2.0124 H       
  28 H28            1.3834    -3.2969    -2.5242 H       
  29 H29            3.5124    -4.9378    -1.4201 H       
  30 H30            4.6678    -6.4181    -2.9433 H       
  31 H31            4.8902    -7.2632    -5.2439 H       
  32 H32            3.4152    -6.4093    -7.0192 H       
  33 H33            1.7147    -4.7076    -6.5004 H       
  34 H34            1.4769    -3.8631    -4.2010 H       
  35 H35            0.8328     3.9035     0.7077 H       
  36 H36            2.4449     3.8033    -0.0402 H       
  37 H37            0.9868     3.7724    -1.0607 H       
  38 H38           -0.3651    -4.5074     0.1075 H       
  39 H39           -1.8570    -3.8849     0.5649 H       
@<TRIPOS>BOND
   1    1    2 1
   2    1    6 1
   3    1   22 1
   4    1   23 1
   5    2    3 2
   6    2    9 1
   7    3    4 1
   8    3    7 1
   9    4    5 1
  10    4   24 1
  11    4   25 1
  12    5    6 1
  13    5   26 1
  14    5   27 1
  15    6   20 1
  16    7    8 2
  17    7   10 1
  18    8    9 1
  19    8   21 1
  20   10   11 2
  21   10   12 am
  22   12   13 1
  23   12   28 1
  24   13   14 1
  25   13   29 1
  26   14   15 ar
  27   14   19 ar
  28   15   16 ar
  29   15   30 1
  30   16   17 ar
  31   16   31 1
  32   17   18 ar
  33   17   32 1
  34   18   19 ar
  35   18   33 1
  36   19   34 1
  37   20   35 1
  38   20   36 1
  39   20   37 1
  40   21   38 1
  41   21   39 1

#	End of record

