#	Name: ASD01840340
#	Creating user name:	WinNT
#	Creation time:	15. 06. 2019 19:37

#	Modifying user name:	WinNT
#	Modification time:	15. 06. 2019 19:37

#	Program:	/corina/corina34_cracker 3.40 0067  02.08.2006

@<TRIPOS>MOLECULE
ASD01840340
  53   56    0    0    0
SMALL
NO_CHARGES


@<TRIPOS>ATOM
   1 C1             2.5103     1.8830    -2.3710 C.3     
   2 O2             2.2393     0.5071    -2.0958 O.3     
   3 C3             0.8488     0.2023    -1.9708 C.3     
   4 C4             0.6807    -1.2673    -1.6827 C.ar    
   5 N5             0.5595    -2.1164    -2.6824 N.ar    
   6 C6             0.4102    -3.4152    -2.4827 C.ar    
   7 C7             0.2551    -4.5545    -3.4599 C.3     
   8 N8             0.1250    -5.7929    -2.6858 N.am    
   9 C9             0.1987    -5.4192    -1.2696 C.3     
  10 C10            0.3767    -3.9250    -1.2004 C.ar    
  11 C11            0.5011    -3.0636    -0.1208 C.ar    
  12 C12            0.4692    -3.5879     1.2917 C.3     
  13 C13            0.6613    -1.7087    -0.3716 C.ar    
  14 Cl14           0.8289    -0.5834     0.9396 Cl      
  15 C15           -0.0330    -7.0364    -3.1810 C.2     
  16 O16           -0.1293    -7.9816    -2.4271 O.2     
  17 C17           -0.0900    -7.2525    -4.6713 C.3     
  18 C18           -0.2730    -8.7430    -4.9639 C.3     
  19 C19           -1.7456    -9.1889    -5.0113 C.3     
  20 N20           -1.3602    -9.9963    -6.1898 N.3     
  21 C21           -0.2221    -9.0910    -6.4626 C.3     
  22 C22           -2.3211    -9.9055    -7.1924 C.ar    
  23 C23           -2.9652    -8.6977    -7.4589 C.ar    
  24 C24           -3.9112    -8.6497    -8.4613 C.ar    
  25 N25           -4.2085    -9.7271    -9.1632 N.ar    
  26 C26           -3.6213   -10.8884    -8.9415 C.ar    
  27 C27           -2.6608   -11.0190    -7.9609 C.ar    
  28 C28           -4.0016   -12.0853    -9.7744 C.3     
  29 F29           -4.3974   -11.6609   -11.0473 F       
  30 F30           -2.9015   -12.9419    -9.8895 F       
  31 H31            3.5870     2.0322    -2.4513 H       
  32 H32            2.0332     2.1667    -3.3091 H       
  33 H33            2.1173     2.4994    -1.5625 H       
  34 H34            0.4214     0.7839    -1.1541 H       
  35 H35            0.3373     0.4511    -2.9006 H       
  36 H36           -0.6380    -4.4022    -4.0660 H       
  37 H37            1.1334    -4.6115    -4.1030 H       
  38 H38           -0.7231    -5.7054    -0.7633 H       
  39 H39            1.0486    -5.9148    -0.8003 H       
  40 H40            1.4819    -3.8346     1.6107 H       
  41 H41            0.0554    -2.8263     1.9527 H       
  42 H42           -0.1528    -4.4821     1.3334 H       
  43 H43           -0.9290    -6.6948    -5.0875 H       
  44 H44            0.8382    -6.9045    -5.1246 H       
  45 H45            0.3598    -9.3784    -4.3443 H       
  46 H46           -2.0519    -9.7850    -4.1517 H       
  47 H47           -2.4416    -8.3819    -5.2405 H       
  48 H48           -0.4725    -8.2554    -7.1162 H       
  49 H49            0.6889    -9.6089    -6.7625 H       
  50 H50           -2.7268    -7.8124    -6.8880 H       
  51 H51           -4.4153    -7.7187    -8.6744 H       
  52 H52           -2.1812   -11.9710    -7.7876 H       
  53 H53           -4.8254   -12.6144    -9.2953 H       
@<TRIPOS>BOND
   1    1    2 1
   2    1   31 1
   3    1   32 1
   4    1   33 1
   5    2    3 1
   6    3    4 1
   7    3   34 1
   8    3   35 1
   9    4   13 ar
  10    4    5 ar
  11    5    6 ar
  12    6   10 ar
  13    6    7 1
  14    7    8 1
  15    7   36 1
  16    7   37 1
  17    8    9 1
  18    8   15 am
  19    9   10 1
  20    9   38 1
  21    9   39 1
  22   10   11 ar
  23   11   12 1
  24   11   13 ar
  25   12   40 1
  26   12   41 1
  27   12   42 1
  28   13   14 1
  29   15   16 2
  30   15   17 1
  31   17   18 1
  32   17   43 1
  33   17   44 1
  34   18   21 1
  35   18   19 1
  36   18   45 1
  37   19   20 1
  38   19   46 1
  39   19   47 1
  40   20   21 1
  41   20   22 1
  42   21   48 1
  43   21   49 1
  44   22   27 ar
  45   22   23 ar
  46   23   24 ar
  47   23   50 1
  48   24   25 ar
  49   24   51 1
  50   25   26 ar
  51   26   27 ar
  52   26   28 1
  53   27   52 1
  54   28   29 1
  55   28   30 1
  56   28   53 1

#	End of record

