#	Name: ASD02038638
#	Creating user name:	WinNT
#	Creation time:	15. 06. 2019 20:17

#	Modifying user name:	WinNT
#	Modification time:	15. 06. 2019 20:17

#	Program:	/corina/corina34_cracker 3.40 0067  02.08.2006

@<TRIPOS>MOLECULE
ASD02038638
  54   55    0    0    0
SMALL
NO_CHARGES


@<TRIPOS>ATOM
   1 C1            -0.3780     0.3079    -3.7011 C.ar    
   2 C2            -0.2894    -0.8922    -3.0113 C.ar    
   3 O3            -1.3827    -1.3946    -2.3778 O.3     
   4 C4            -1.2193    -2.6347    -1.6868 C.3     
   5 C5            -2.5467    -3.0376    -1.0413 C.3     
   6 C6            -2.4060    -4.4232    -0.4079 C.3     
   7 N7            -3.7168    -4.8751     0.0775 N.3     
   8 C8            -3.7250    -6.3277     0.2963 C.3     
   9 C9            -5.1701    -6.8210     0.3913 C.3     
  10 C10           -5.1785    -8.3101     0.6225 C.ar    
  11 C11            0.7325     0.8180    -4.3450 C.ar    
  12 C12            1.9360     0.1299    -4.3022 C.ar    
  13 C13            2.0246    -1.0701    -3.6125 C.ar    
  14 C14            0.9142    -1.5800    -2.9681 C.ar    
  15 O15            3.0290     0.6316    -4.9368 O.3     
  16 O16           -2.8944    -2.0862    -0.0333 O.3     
  17 C17           -5.1672    -8.8090     1.9115 C.ar    
  18 C18           -5.1753   -10.1748     2.1251 C.ar    
  19 C19           -5.1946   -11.0429     1.0486 C.ar    
  20 C20           -5.2059   -10.5431    -0.2429 C.ar    
  21 C21           -5.2031    -9.1764    -0.4546 C.ar    
  22 Cl22          -5.2301   -11.6314    -1.5952 Cl      
  23 Cl23          -5.2042   -12.7582     1.3161 Cl      
  24 C24           -4.1019    -4.1564     1.2995 C.3     
  25 C25           -3.0273    -4.3579     2.3698 C.3     
  26 C26           -3.4834    -3.7103     3.6788 C.3     
  27 C27           -2.4088    -3.9118     4.7491 C.3     
  28 H28           -1.3164     0.8412    -3.7385 H       
  29 H29           -0.9097    -3.4057    -2.3924 H       
  30 H30           -0.4588    -2.5227    -0.9141 H       
  31 H31           -3.3274    -3.0632    -1.8015 H       
  32 H32           -2.0319    -5.1265    -1.1520 H       
  33 H33           -1.7073    -4.3718     0.4270 H       
  34 H34           -3.2258    -6.8233    -0.5363 H       
  35 H35           -3.2006    -6.5584     1.2237 H       
  36 H36           -5.6707    -6.3216     1.2209 H       
  37 H37           -5.6931    -6.5946    -0.5379 H       
  38 H38            0.6635     1.7524    -4.8821 H       
  39 H39            2.9617    -1.6059    -3.5791 H       
  40 H40            0.9832    -2.5145    -2.4310 H       
  41 H41            3.5697     1.2152    -4.3871 H       
  42 H42           -2.2429    -2.0103     0.6773 H       
  43 H43           -5.1518    -8.1314     2.7524 H       
  44 H44           -5.1662   -10.5640     3.1325 H       
  45 H45           -5.2119    -8.7859    -1.4615 H       
  46 H46           -4.2011    -3.0934     1.0799 H       
  47 H47           -5.0540    -4.5427     1.6634 H       
  48 H48           -2.8679    -5.4245     2.5283 H       
  49 H49           -2.0961    -3.8963     2.0412 H       
  50 H50           -3.6428    -2.6438     3.5202 H       
  51 H51           -4.4146    -4.1720     4.0074 H       
  52 H52           -1.4777    -3.4502     4.4205 H       
  53 H53           -2.7338    -3.4505     5.6816 H       
  54 H54           -2.2494    -4.9784     4.9076 H       
@<TRIPOS>BOND
   1    1    2 ar
   2    1   11 ar
   3    1   28 1
   4    2    3 1
   5    2   14 ar
   6    3    4 1
   7    4    5 1
   8    4   29 1
   9    4   30 1
  10    5    6 1
  11    5   16 1
  12    5   31 1
  13    6    7 1
  14    6   32 1
  15    6   33 1
  16    7    8 1
  17    7   24 1
  18    8    9 1
  19    8   34 1
  20    8   35 1
  21    9   10 1
  22    9   36 1
  23    9   37 1
  24   10   17 ar
  25   10   21 ar
  26   11   12 ar
  27   11   38 1
  28   12   13 ar
  29   12   15 1
  30   13   14 ar
  31   13   39 1
  32   14   40 1
  33   15   41 1
  34   16   42 1
  35   17   18 ar
  36   17   43 1
  37   18   19 ar
  38   18   44 1
  39   19   20 ar
  40   19   23 1
  41   20   21 ar
  42   20   22 1
  43   21   45 1
  44   24   25 1
  45   24   46 1
  46   24   47 1
  47   25   26 1
  48   25   48 1
  49   25   49 1
  50   26   27 1
  51   26   50 1
  52   26   51 1
  53   27   52 1
  54   27   53 1
  55   27   54 1

#	End of record

