#	Name: ASD00731004
#	Creating user name:	WinNT
#	Creation time:	15. 06. 2019 18:37

#	Modifying user name:	WinNT
#	Modification time:	15. 06. 2019 18:37

#	Program:	/corina/corina34_cracker 3.40 0067  02.08.2006

@<TRIPOS>MOLECULE
ASD00731004
 348  349    0    0    0
SMALL
NO_CHARGES


@<TRIPOS>ATOM
   1 C1             2.6737    -6.3348     0.6820 C.2     
   2 O2             2.4046    -7.5157     0.6183 O.2     
   3 N3             4.9499    -7.0786     1.0754 N.am    
   4 C4             4.0929    -5.8982     0.9394 C.3     
   5 C5             4.5838    -5.0436    -0.2308 C.3     
   6 C6             5.9775    -4.4975     0.0859 C.3     
   7 C7             6.5201    -3.7472    -1.1321 C.3     
   8 C8             5.8921    -3.5416     1.2774 C.3     
   9 C9            -0.4090    -4.7431    -0.4699 C.2     
  10 O10            0.1626    -3.7105    -0.7490 O.2     
  11 N11            1.7044    -5.4130     0.5170 N.am    
  12 C12            0.3259    -5.8374     0.2607 C.3     
  13 C13           -0.3754    -6.1230     1.5902 C.3     
  14 C14            0.2848    -7.2982     2.2640 C.ar    
  15 C15            1.3421    -7.0937     3.1307 C.ar    
  16 C16            1.9477    -8.1717     3.7487 C.ar    
  17 C17            1.4958    -9.4543     3.5004 C.ar    
  18 C18            0.4379    -9.6588     2.6344 C.ar    
  19 C19           -0.1705    -8.5804     2.0197 C.ar    
  20 C20           -3.8813    -3.8569    -0.9650 C.2     
  21 O21           -4.2551    -4.7510    -0.2359 O.2     
  22 N22           -1.7013    -4.9121    -0.8131 N.am    
  23 C23           -2.4470    -3.8093    -1.4248 C.3     
  24 C24           -2.3950    -3.9416    -2.9482 C.3     
  25 C25           -2.8579    -5.3422    -3.3545 C.3     
  26 C26           -4.3404    -5.5080    -3.0144 C.3     
  27 C27           -0.9604    -3.7186    -3.4308 C.3     
  28 C28           -6.9957    -2.2495    -2.0042 C.2     
  29 O29           -6.4586    -1.6820    -2.9318 O.2     
  30 N30           -4.7488    -2.9057    -1.3641 N.am    
  31 C31           -6.1644    -3.0062    -1.0006 C.3     
  32 C32           -6.3771    -2.4089     0.3918 C.3     
  33 C33           -5.6321    -3.2528     1.4280 C.3     
  34 C34           -5.8448    -2.6555     2.8204 C.3     
  35 N35           -5.1315    -3.4636     3.8126 N.pl3   
  36 C36           -5.1774    -3.1175     5.1424 C.2     
  37 N37           -4.5427    -3.8365     6.0252 N.2     
  38 N38           -5.8925    -2.0131     5.5410 N.pl3   
  39 C39          -10.4397    -1.0407    -2.2059 C.2     
  40 O40          -10.6657    -1.3231    -1.0483 O.2     
  41 N41           -8.3361    -2.2033    -1.8710 N.am    
  42 C42           -9.1443    -1.4676    -2.8466 C.3     
  43 C43           -9.4415    -2.3694    -4.0463 C.3     
  44 C44          -10.2100    -3.6062    -3.5765 C.3     
  45 C45          -10.6157    -4.4458    -4.7896 C.3     
  46 C46           -8.1262    -2.8029    -4.6968 C.3     
  47 C47          -13.6566     0.2552    -3.3614 C.2     
  48 O48          -13.3802     0.0598    -4.5260 O.2     
  49 N49          -11.3472    -0.3450    -2.9193 N.am    
  50 C50          -12.6066     0.0700    -2.2965 C.3     
  51 C51          -12.3967     1.3902    -1.5521 C.3     
  52 C52          -11.4237     1.1722    -0.3916 C.3     
  53 C53          -11.2138     2.4924     0.3527 C.3     
  54 N54          -10.2822     2.2837     1.4639 N.pl3   
  55 C55           -9.9395     3.3354     2.2804 C.2     
  56 N56           -9.1106     3.1497     3.2690 N.2     
  57 N57          -10.4711     4.5829     2.0541 N.pl3   
  58 C58          -16.9698     1.7864    -3.5660 C.2     
  59 O59          -16.8723     2.2777    -2.4614 O.2     
  60 N60          -14.9029     0.6380    -3.0197 N.am    
  61 C61          -15.9236     0.8181    -4.0550 C.3     
  62 C62          -16.5801    -0.5290    -4.3637 C.3     
  63 O63          -17.2880    -0.9892    -3.2108 O.3     
  64 C64          -20.4046     2.5173    -4.4165 C.2     
  65 O65          -20.4415     1.6032    -5.2128 O.2     
  66 N66          -18.0137     2.1064    -4.3561 N.am    
  67 C67          -19.0847     2.9643    -3.8431 C.3     
  68 C68          -18.8162     4.4143    -4.2511 C.3     
  69 C69          -18.6279     4.4908    -5.7676 C.3     
  70 C70          -19.9562     4.1845    -6.4625 C.3     
  71 C71          -17.5492     4.9140    -3.5541 C.3     
  72 C72          -23.7738     3.9259    -4.5829 C.2     
  73 O73          -23.4303     4.9557    -4.0422 O.2     
  74 N74          -21.5442     3.1333    -4.0445 N.am    
  75 C75          -22.8145     2.7674    -4.6761 C.3     
  76 C76          -23.4094     1.5536    -3.9594 C.3     
  77 C77          -22.4944     0.3439    -4.1600 C.3     
  78 C78          -23.0894    -0.8699    -3.4433 C.3     
  79 N79          -22.2133    -2.0283    -3.6353 N.pl3   
  80 C80          -22.5450    -3.2408    -3.0787 C.2     
  81 N81          -21.7655    -4.2714    -3.2495 N.2     
  82 N82          -23.6989    -3.3663    -2.3419 N.pl3   
  83 C83          -27.3615     4.4298    -5.0701 C.2     
  84 O84          -27.5707     3.2401    -5.1780 O.2     
  85 N85          -25.0135     3.8175    -5.1005 N.am    
  86 C86          -25.9461     4.9437    -5.0099 C.3     
  87 C87          -25.7019     5.9032    -6.1764 C.3     
  88 O88          -26.0185     5.2482    -7.4063 O.3     
  89 C89          -30.6547     5.9466    -5.5994 C.2     
  90 O90          -30.3238     7.0910    -5.3719 O.2     
  91 N91          -28.3950     5.2924    -5.0040 N.am    
  92 C92          -29.7667     4.8064    -5.1724 C.3     
  93 C93          -30.2720     4.2356    -3.8459 C.3     
  94 C94          -31.6398     3.5840    -4.0591 C.3     
  95 C95          -31.4861     2.3600    -4.9642 C.3     
  96 C96          -32.2144     3.1508    -2.7089 C.3     
  97 C97          -34.0786     6.3564    -6.8127 C.2     
  98 O98          -34.3822     5.2228    -6.5066 O.2     
  99 N99          -31.8167     5.6946    -6.2341 N.am    
 100 C100         -32.6427     6.8037    -6.7177 C.3     
 101 C101         -32.1520     7.2403    -8.0996 C.3     
 102 C102         -30.7373     7.8107    -7.9817 C.3     
 103 C103         -30.2466     8.2473    -9.3636 C.3     
 104 N104         -28.8919     8.7935    -9.2507 N.pl3   
 105 C105         -28.2406     9.2532   -10.3707 C.2     
 106 N106         -27.0353     9.7392   -10.2703 N.2     
 107 N107         -28.8605     9.2003   -11.5967 N.pl3   
 108 C108         -36.7748     6.1352    -8.5267 C.2     
 109 O109         -35.9232     5.9959    -9.3789 O.2     
 110 N110         -35.0256     7.2161    -7.2379 N.am    
 111 C111         -36.4352     6.8173    -7.2265 C.3     
 112 C112         -37.3147     8.0577    -7.0564 C.3     
 113 C113         -37.0696     8.6650    -5.6991 C.2     
 114 O114         -36.3492     8.1005    -4.9033 O.2     
 115 N115         -37.6510     9.8353    -5.3695 N.am    
 116 C116         -39.7577     5.1757   -10.3649 C.2     
 117 O117         -40.4497     5.9270    -9.7111 O.2     
 118 N118         -38.0249     5.6801    -8.7424 N.am    
 119 C119         -38.3287     4.9221    -9.9588 C.3     
 120 C120         -38.1319     3.4286    -9.6915 C.3     
 121 C121         -38.9453     3.0189    -8.4622 C.3     
 122 C122         -40.4381     3.1429    -8.7739 C.3     
 123 C123         -36.6494     3.1467    -9.4392 C.3     
 124 C124         -42.1280     3.5811   -12.6593 C.2     
 125 O125         -41.3158     2.9783   -13.3287 O.2     
 126 N126         -40.2666     4.5675   -11.4547 N.am    
 127 C127         -41.6841     4.7278   -11.7881 C.3     
 128 C128         -41.8857     6.0460   -12.5381 C.3     
 129 C129         -43.3769     6.2558   -12.8088 C.3     
 130 C130         -44.1108     6.4689   -11.4833 C.3     
 131 C131         -41.1281     5.9980   -13.8665 C.3     
 132 C132         -44.0571     2.4238   -14.8970 C.2     
 133 O133         -43.8806     3.5646   -15.2538 O.2     
 134 N134         -43.4275     3.2254   -12.6947 N.am    
 135 C135         -43.8430     2.0438   -13.4545 C.3     
 136 C136         -45.1477     1.4960   -12.8725 C.3     
 137 C137         -44.9037     1.0024   -11.4697 C.2     
 138 C138         -45.5741     1.3880   -10.3672 C.2     
 139 N139         -45.0359     0.6979    -9.3147 N.pl3   
 140 C140         -44.0546    -0.0859    -9.8110 C.2     
 141 N141         -43.9846     0.0977   -11.1011 N.2     
 142 O142         -44.4438     1.4949   -15.7855 O.3     
 143 C143           6.0959    -7.0017     1.7806 C.2     
 144 O144           6.4176    -5.9553     2.3026 O.2     
 145 C145          21.8348   -14.3592     8.8050 C.3     
 146 C146          20.9397   -13.1264     8.6631 C.3     
 147 C147          19.7123   -13.4816     7.8215 C.3     
 148 C148          18.8172   -12.2488     7.6796 C.3     
 149 C149          17.5898   -12.6040     6.8380 C.3     
 150 C150          16.6948   -11.3712     6.6960 C.3     
 151 C151          15.4673   -11.7264     5.8545 C.3     
 152 C152          14.5723   -10.4936     5.7125 C.3     
 153 C153          13.3449   -10.8487     4.8710 C.3     
 154 C154          12.4498    -9.6160     4.7290 C.3     
 155 C155          11.2224    -9.9711     3.8874 C.3     
 156 C156          10.3274    -8.7384     3.7455 C.3     
 157 C157           9.0999    -9.0935     2.9039 C.3     
 158 C158           8.2049    -7.8608     2.7619 C.3     
 159 C159           6.9775    -8.2159     1.9204 C.3     
 160 H160           4.6926    -7.9155     0.6579 H       
 161 H161           4.1320    -5.3131     1.8582 H       
 162 H162           4.6290    -5.6540    -1.1327 H       
 163 H163           3.8954    -4.2133    -0.3882 H       
 164 H164           6.6447    -5.3241     0.3303 H       
 165 H165           5.8530    -2.9206    -1.3765 H       
 166 H166           7.5131    -3.3582    -0.9065 H       
 167 H167           6.5810    -4.4282    -1.9810 H       
 168 H168           5.5055    -4.0761     2.1451 H       
 169 H169           6.8850    -3.1526     1.5030 H       
 170 H170           5.2250    -2.7150     1.0330 H       
 171 H171           1.9196    -4.4685     0.5679 H       
 172 H172           0.3312    -6.7411    -0.3488 H       
 173 H173          -0.3030    -5.2469     2.2347 H       
 174 H174          -1.4248    -6.3525     1.4055 H       
 175 H175           1.6952    -6.0916     3.3247 H       
 176 H176           2.7742    -8.0120     4.4253 H       
 177 H177           1.9694   -10.2966     3.9827 H       
 178 H178           0.0850   -10.6608     2.4401 H       
 179 H179          -0.9994    -8.7398     1.3459 H       
 180 H180          -2.1377    -5.7639    -0.6552 H       
 181 H181          -2.0013    -2.8602    -1.1271 H       
 182 H182          -3.0503    -3.1970    -3.4001 H       
 183 H183          -2.7140    -5.4756    -4.4267 H       
 184 H184          -2.2755    -6.0884    -2.8141 H       
 185 H185          -4.4629    -5.5455    -1.9320 H       
 186 H186          -4.9016    -4.6636    -3.4145 H       
 187 H187          -4.7129    -6.4331    -3.4544 H       
 188 H188          -0.3237    -4.5226    -3.0617 H       
 189 H189          -0.9408    -3.7109    -4.5206 H       
 190 H190          -0.5946    -2.7634    -3.0541 H       
 191 H191          -4.4358    -2.1545    -1.8921 H       
 192 H192          -6.4648    -4.0540    -0.9963 H       
 193 H193          -5.9947    -1.3884     0.4116 H       
 194 H194          -7.4416    -2.4026     0.6257 H       
 195 H195          -6.0145    -4.2734     1.4082 H       
 196 H196          -4.5676    -3.2591     1.1941 H       
 197 H197          -5.4624    -1.6349     2.8403 H       
 198 H198          -6.9094    -2.6492     3.0544 H       
 199 H199          -4.6270    -4.2428     3.5314 H       
 200 H200          -4.5751    -3.5923     6.9634 H       
 201 H201          -6.3648    -1.4780     4.8841 H       
 202 H202          -5.9248    -1.7689     6.4792 H       
 203 H203          -8.7657    -2.6571    -1.1291 H       
 204 H204          -8.5968    -0.5865    -3.1813 H       
 205 H205         -10.0428    -1.8221    -4.7722 H       
 206 H206          -9.5752    -4.2005    -2.9193 H       
 207 H207         -11.1032    -3.2950    -3.0349 H       
 208 H208         -11.1632    -5.3269    -4.4549 H       
 209 H209         -11.2505    -3.8515    -5.4468 H       
 210 H210          -9.7225    -4.7570    -5.3312 H       
 211 H211          -8.3380    -3.4454    -5.5515 H       
 212 H212          -7.5788    -1.9218    -5.0315 H       
 213 H213          -7.5250    -3.3502    -3.9709 H       
 214 H214         -11.1665    -0.1191    -3.8452 H       
 215 H215         -12.9337    -0.6957    -1.5930 H       
 216 H216         -11.9853     2.1319    -2.2368 H       
 217 H217         -13.3517     1.7442    -1.1639 H       
 218 H218         -11.8351     0.4305     0.2930 H       
 219 H219         -10.4687     0.8182    -0.7798 H       
 220 H220         -10.8025     3.2341    -0.3320 H       
 221 H221         -12.1689     2.8465     0.7409 H       
 222 H222          -9.9071     1.4035     1.6235 H       
 223 H223          -8.8688     3.8918     3.8450 H       
 224 H224         -11.0879     4.7211     1.3183 H       
 225 H225         -10.2293     5.3250     2.6301 H       
 226 H226         -15.1240     0.7943    -2.0882 H       
 227 H227         -15.4588     1.2114    -4.9590 H       
 228 H228         -17.2758    -0.4122    -5.1946 H       
 229 H229         -15.8121    -1.2544    -4.6321 H       
 230 H230         -17.7302    -1.8403    -3.3346 H       
 231 H231         -18.0559     1.7686    -5.2644 H       
 232 H232         -19.1180     2.8931    -2.7559 H       
 233 H233         -19.6617     5.0367    -3.9581 H       
 234 H234         -18.2965     5.4922    -6.0425 H       
 235 H235         -17.8790     3.7622    -6.0780 H       
 236 H236         -19.8583     4.3712    -7.5319 H       
 237 H237         -20.2193     3.1395    -6.2988 H       
 238 H238         -20.7371     4.8245    -6.0519 H       
 239 H239         -16.6859     4.3680    -3.9343 H       
 240 H240         -17.4217     5.9784    -3.7515 H       
 241 H241         -17.6375     4.7518    -2.4798 H       
 242 H242         -21.5234     3.8188    -3.3586 H       
 243 H243         -22.6418     2.5220    -5.7240 H       
 244 H244         -23.4995     1.7685    -2.8946 H       
 245 H245         -24.3950     1.3359    -4.3708 H       
 246 H246         -22.4044     0.1290    -5.2248 H       
 247 H247         -21.5088     0.5616    -3.7486 H       
 248 H248         -23.1795    -0.6551    -2.3785 H       
 249 H249         -24.0750    -1.0877    -3.8547 H       
 250 H250         -21.3992    -1.9398    -4.1552 H       
 251 H251         -21.9996    -5.1270    -2.8568 H       
 252 H252         -24.2790    -2.5994    -2.2147 H       
 253 H253         -23.9330    -4.2218    -1.9492 H       
 254 H254         -25.2882     2.9939    -5.5330 H       
 255 H255         -25.7903     5.4696    -4.0680 H       
 256 H256         -26.3335     6.7839    -6.0607 H       
 257 H257         -24.6547     6.2057    -6.1848 H       
 258 H258         -25.8868     5.7987    -8.1903 H       
 259 H259         -28.2305     6.2351    -4.8449 H       
 260 H260         -29.7850     4.0268    -5.9340 H       
 261 H261         -29.5672     3.4893    -3.4795 H       
 262 H262         -30.3625     5.0395    -3.1154 H       
 263 H263         -32.3144     4.3003    -4.5281 H       
 264 H264         -30.7395     1.6874    -4.5421 H       
 265 H265         -32.4417     1.8411    -5.0389 H       
 266 H266         -31.1677     2.6796    -5.9565 H       
 267 H267         -32.3239     4.0228    -2.0641 H       
 268 H268         -33.1889     2.6866    -2.8608 H       
 269 H269         -31.5399     2.4345    -2.2399 H       
 270 H270         -32.1060     4.7789    -6.3707 H       
 271 H271         -32.5682     7.6414    -6.0244 H       
 272 H272         -32.1426     6.3809    -8.7700 H       
 273 H273         -32.8199     8.0043    -8.4976 H       
 274 H274         -30.7467     8.6701    -7.3113 H       
 275 H275         -30.0695     7.0467    -7.5837 H       
 276 H276         -30.2372     7.3879   -10.0340 H       
 277 H277         -30.9144     9.0113    -9.7616 H       
 278 H278         -28.4546     8.8308    -8.3857 H       
 279 H279         -26.5757    10.0635   -11.0606 H       
 280 H280         -29.7574     8.8386   -11.6715 H       
 281 H281         -28.4009     9.5246   -12.3870 H       
 282 H282         -34.7737     8.0988    -7.5514 H       
 283 H283         -36.6119     6.1304    -6.3989 H       
 284 H284         -37.0697     8.7857    -7.8297 H       
 285 H285         -38.3636     7.7741    -7.1435 H       
 286 H286         -38.2272    10.2868    -6.0060 H       
 287 H287         -37.4933    10.2262    -4.4959 H       
 288 H288         -38.7235     5.8543    -8.0924 H       
 289 H289         -37.6615     5.2388   -10.7604 H       
 290 H290         -38.4682     2.8572   -10.5567 H       
 291 H291         -38.7133     1.9865    -8.2005 H       
 292 H292         -38.6934     3.6710    -7.6259 H       
 293 H293         -40.7100     4.1966    -8.8362 H       
 294 H294         -40.6523     2.6555    -9.7251 H       
 295 H295         -41.0154     2.6648    -7.9825 H       
 296 H296         -36.3415     3.6258    -8.5098 H       
 297 H297         -36.4919     2.0708    -9.3629 H       
 298 H298         -36.0585     3.5426   -10.2652 H       
 299 H299         -39.6943     4.0237   -12.0182 H       
 300 H300         -42.2741     4.7373   -10.8716 H       
 301 H301         -41.5068     6.8698   -11.9333 H       
 302 H302         -43.5112     7.1318   -13.4434 H       
 303 H303         -43.7820     5.3775   -13.3114 H       
 304 H304         -43.7552     7.3864   -11.0145 H       
 305 H305         -45.1819     6.5475   -11.6696 H       
 306 H306         -43.9182     5.6245   -10.8215 H       
 307 H307         -41.4504     5.1272   -14.4374 H       
 308 H308         -41.3362     6.9035   -14.4364 H       
 309 H309         -40.0578     5.9290   -13.6720 H       
 310 H310         -44.0876     3.7517   -12.2171 H       
 311 H311         -43.0680     1.2800   -13.3912 H       
 312 H312         -45.8976     2.2868   -12.8541 H       
 313 H313         -45.5037     0.6720   -13.4908 H       
 314 H314         -46.3811     2.1044   -10.3221 H       
 315 H315         -45.3084     0.7603    -8.3859 H       
 316 H316         -43.4334    -0.7567    -9.2360 H       
 317 H317         -44.5682     1.7863   -16.6992 H       
 318 H318          21.2777   -15.1583     9.2942 H       
 319 H319          22.1550   -14.6913     7.8175 H       
 320 H320          22.7092   -14.1062     9.4046 H       
 321 H321          20.6194   -12.7943     9.6506 H       
 322 H322          21.4968   -12.3274     8.1739 H       
 323 H323          20.0326   -13.8137     6.8340 H       
 324 H324          19.1552   -14.2807     8.3106 H       
 325 H325          18.4970   -11.9167     8.6671 H       
 326 H326          19.3743   -11.4498     7.1904 H       
 327 H327          17.9101   -12.9361     5.8505 H       
 328 H328          17.0328   -13.4030     7.3271 H       
 329 H329          16.3745   -11.0391     7.6836 H       
 330 H330          17.2518   -10.5721     6.2069 H       
 331 H331          15.7876   -12.0585     4.8669 H       
 332 H332          14.9103   -12.5254     6.3436 H       
 333 H333          14.2520   -10.1615     6.7000 H       
 334 H334          15.1294    -9.6945     5.2234 H       
 335 H335          13.6651   -11.1809     3.8834 H       
 336 H336          12.7878   -11.6478     5.3601 H       
 337 H337          12.1296    -9.2839     5.7165 H       
 338 H338          13.0069    -8.8169     4.2399 H       
 339 H339          11.5427   -10.3033     2.8999 H       
 340 H340          10.6653   -10.7702     4.3766 H       
 341 H341          10.0071    -8.4063     4.7330 H       
 342 H342          10.8844    -7.9393     3.2563 H       
 343 H343           9.4202    -9.4257     1.9164 H       
 344 H344           8.5429    -9.8926     3.3930 H       
 345 H345           7.8846    -7.5286     3.7495 H       
 346 H346           8.7620    -7.0617     2.2728 H       
 347 H347           6.4204    -9.0150     2.4095 H       
 348 H348           7.2977    -8.5480     0.9329 H       
@<TRIPOS>BOND
   1    1    2 2
   2    1    4 1
   3    1   11 am
   4    3  143 am
   5    3    4 1
   6    3  160 1
   7    4    5 1
   8    4  161 1
   9    5    6 1
  10    5  162 1
  11    5  163 1
  12    6    7 1
  13    6    8 1
  14    6  164 1
  15    7  165 1
  16    7  166 1
  17    7  167 1
  18    8  168 1
  19    8  169 1
  20    8  170 1
  21    9   10 2
  22    9   12 1
  23    9   22 am
  24   11   12 1
  25   11  171 1
  26   12   13 1
  27   12  172 1
  28   13   14 1
  29   13  173 1
  30   13  174 1
  31   14   15 ar
  32   14   19 ar
  33   15   16 ar
  34   15  175 1
  35   16   17 ar
  36   16  176 1
  37   17   18 ar
  38   17  177 1
  39   18   19 ar
  40   18  178 1
  41   19  179 1
  42   20   21 2
  43   20   23 1
  44   20   30 am
  45   22   23 1
  46   22  180 1
  47   23   24 1
  48   23  181 1
  49   24   25 1
  50   24   27 1
  51   24  182 1
  52   25   26 1
  53   25  183 1
  54   25  184 1
  55   26  185 1
  56   26  186 1
  57   26  187 1
  58   27  188 1
  59   27  189 1
  60   27  190 1
  61   28   29 2
  62   28   31 1
  63   28   41 am
  64   30   31 1
  65   30  191 1
  66   31   32 1
  67   31  192 1
  68   32   33 1
  69   32  193 1
  70   32  194 1
  71   33   34 1
  72   33  195 1
  73   33  196 1
  74   34   35 1
  75   34  197 1
  76   34  198 1
  77   35   36 1
  78   35  199 1
  79   36   37 2
  80   36   38 1
  81   37  200 1
  82   38  201 1
  83   38  202 1
  84   39   40 2
  85   39   42 1
  86   39   49 am
  87   41   42 1
  88   41  203 1
  89   42   43 1
  90   42  204 1
  91   43   44 1
  92   43   46 1
  93   43  205 1
  94   44   45 1
  95   44  206 1
  96   44  207 1
  97   45  208 1
  98   45  209 1
  99   45  210 1
 100   46  211 1
 101   46  212 1
 102   46  213 1
 103   47   48 2
 104   47   50 1
 105   47   60 am
 106   49   50 1
 107   49  214 1
 108   50   51 1
 109   50  215 1
 110   51   52 1
 111   51  216 1
 112   51  217 1
 113   52   53 1
 114   52  218 1
 115   52  219 1
 116   53   54 1
 117   53  220 1
 118   53  221 1
 119   54   55 1
 120   54  222 1
 121   55   56 2
 122   55   57 1
 123   56  223 1
 124   57  224 1
 125   57  225 1
 126   58   59 2
 127   58   61 1
 128   58   66 am
 129   60   61 1
 130   60  226 1
 131   61   62 1
 132   61  227 1
 133   62   63 1
 134   62  228 1
 135   62  229 1
 136   63  230 1
 137   64   65 2
 138   64   67 1
 139   64   74 am
 140   66   67 1
 141   66  231 1
 142   67   68 1
 143   67  232 1
 144   68   69 1
 145   68   71 1
 146   68  233 1
 147   69   70 1
 148   69  234 1
 149   69  235 1
 150   70  236 1
 151   70  237 1
 152   70  238 1
 153   71  239 1
 154   71  240 1
 155   71  241 1
 156   72   73 2
 157   72   75 1
 158   72   85 am
 159   74   75 1
 160   74  242 1
 161   75   76 1
 162   75  243 1
 163   76   77 1
 164   76  244 1
 165   76  245 1
 166   77   78 1
 167   77  246 1
 168   77  247 1
 169   78   79 1
 170   78  248 1
 171   78  249 1
 172   79   80 1
 173   79  250 1
 174   80   81 2
 175   80   82 1
 176   81  251 1
 177   82  252 1
 178   82  253 1
 179   83   84 2
 180   83   86 1
 181   83   91 am
 182   85   86 1
 183   85  254 1
 184   86   87 1
 185   86  255 1
 186   87   88 1
 187   87  256 1
 188   87  257 1
 189   88  258 1
 190   89   90 2
 191   89   92 1
 192   89   99 am
 193   91   92 1
 194   91  259 1
 195   92   93 1
 196   92  260 1
 197   93   94 1
 198   93  261 1
 199   93  262 1
 200   94   95 1
 201   94   96 1
 202   94  263 1
 203   95  264 1
 204   95  265 1
 205   95  266 1
 206   96  267 1
 207   96  268 1
 208   96  269 1
 209   97   98 2
 210   97  100 1
 211   97  110 am
 212   99  100 1
 213   99  270 1
 214  100  101 1
 215  100  271 1
 216  101  102 1
 217  101  272 1
 218  101  273 1
 219  102  103 1
 220  102  274 1
 221  102  275 1
 222  103  104 1
 223  103  276 1
 224  103  277 1
 225  104  105 1
 226  104  278 1
 227  105  106 2
 228  105  107 1
 229  106  279 1
 230  107  280 1
 231  107  281 1
 232  108  109 2
 233  108  111 1
 234  108  118 am
 235  110  111 1
 236  110  282 1
 237  111  112 1
 238  111  283 1
 239  112  113 1
 240  112  284 1
 241  112  285 1
 242  113  114 2
 243  113  115 am
 244  115  286 1
 245  115  287 1
 246  116  117 2
 247  116  119 1
 248  116  126 am
 249  118  119 1
 250  118  288 1
 251  119  120 1
 252  119  289 1
 253  120  121 1
 254  120  123 1
 255  120  290 1
 256  121  122 1
 257  121  291 1
 258  121  292 1
 259  122  293 1
 260  122  294 1
 261  122  295 1
 262  123  296 1
 263  123  297 1
 264  123  298 1
 265  124  125 2
 266  124  127 1
 267  124  134 am
 268  126  127 1
 269  126  299 1
 270  127  128 1
 271  127  300 1
 272  128  129 1
 273  128  131 1
 274  128  301 1
 275  129  130 1
 276  129  302 1
 277  129  303 1
 278  130  304 1
 279  130  305 1
 280  130  306 1
 281  131  307 1
 282  131  308 1
 283  131  309 1
 284  132  133 2
 285  132  135 1
 286  132  142 1
 287  134  135 1
 288  134  310 1
 289  135  136 1
 290  135  311 1
 291  136  137 1
 292  136  312 1
 293  136  313 1
 294  137  138 2
 295  137  141 1
 296  138  139 1
 297  138  314 1
 298  139  140 1
 299  139  315 1
 300  140  141 2
 301  140  316 1
 302  142  317 1
 303  143  144 2
 304  143  159 1
 305  145  146 1
 306  145  318 1
 307  145  319 1
 308  145  320 1
 309  146  147 1
 310  146  321 1
 311  146  322 1
 312  147  148 1
 313  147  323 1
 314  147  324 1
 315  148  149 1
 316  148  325 1
 317  148  326 1
 318  149  150 1
 319  149  327 1
 320  149  328 1
 321  150  151 1
 322  150  329 1
 323  150  330 1
 324  151  152 1
 325  151  331 1
 326  151  332 1
 327  152  153 1
 328  152  333 1
 329  152  334 1
 330  153  154 1
 331  153  335 1
 332  153  336 1
 333  154  155 1
 334  154  337 1
 335  154  338 1
 336  155  156 1
 337  155  339 1
 338  155  340 1
 339  156  157 1
 340  156  341 1
 341  156  342 1
 342  157  158 1
 343  157  343 1
 344  157  344 1
 345  158  159 1
 346  158  345 1
 347  158  346 1
 348  159  347 1
 349  159  348 1

#	End of record

