#	Name: ASD01208552
#	Creating user name:	WinNT
#	Creation time:	15. 06. 2019 19:10

#	Modifying user name:	WinNT
#	Modification time:	15. 06. 2019 19:10

#	Program:	/corina/corina34_cracker 3.40 0067  02.08.2006

@<TRIPOS>MOLECULE
ASD01208552
  64   67    0    0    0
SMALL
NO_CHARGES


@<TRIPOS>ATOM
   1 C1             2.2215    -1.2423     4.5774 C.ar    
   2 C2             3.2963    -0.3846     4.4335 C.ar    
   3 C3             3.7408    -0.0649     3.1609 C.ar    
   4 C4             3.0821    -0.6247     2.0703 C.ar    
   5 C5             2.0110    -1.4772     2.2953 C.ar    
   6 N6             1.6192    -1.7558     3.5229 N.ar    
   7 S7             1.6537    -1.6606     6.1921 S.o2    
   8 O8             1.0397    -2.9318     6.0293 O.2     
   9 O9             2.7984    -1.5004     7.0186 O.2     
  10 C10            0.4097    -0.3973     6.5758 C.3     
  11 O11            3.4820    -0.3400     0.8032 O.3     
  12 C12            4.5508     0.4835     0.6413 C.ar    
  13 C13            5.8339    -0.0024     0.8336 C.ar    
  14 C14            6.9303     0.8440     0.6672 C.ar    
  15 C15            6.7293     2.1774     0.3075 C.ar    
  16 C16            5.4435     2.6550     0.1173 C.ar    
  17 C17            4.3558     1.8084     0.2783 C.ar    
  18 O18            5.2468     3.9533    -0.2330 O.3     
  19 C19            3.9023     4.3563    -0.5013 C.3     
  20 C20            3.9102     5.5798    -1.4199 C.3     
  21 C21            3.2040     4.7101     0.8133 C.3     
  22 O22            4.5069     6.6842    -0.7371 O.3     
  23 C23            4.5641     7.8840    -1.5113 C.3     
  24 N24            8.6325    -0.9479     1.2240 N.pl3   
  25 C25            8.3011     0.3301     0.8717 C.2     
  26 C26            9.4627     1.0567     0.7392 C.2     
  27 C27           10.5300     0.2013     1.0174 C.2     
  28 C28           10.0015    -1.0359     1.3158 C.2     
  29 O29           10.1888    -3.4261     1.9540 O.3     
  30 C30           10.7674    -2.2391     1.6710 C.2     
  31 N31           12.0664    -2.2605     1.7422 N.2     
  32 C32           12.4905    -3.6263     2.1068 C.3     
  33 C33           11.2034    -4.4454     1.8445 C.3     
  34 C34           13.6333    -4.1017     1.2074 C.3     
  35 C35           14.8802    -3.2574     1.4778 C.3     
  36 H36            3.7834     0.0316     5.3029 H       
  37 H37            4.5778     0.6026     3.0187 H       
  38 H38            1.4924    -1.9168     1.4561 H       
  39 H39           -0.3919    -0.4410     5.8385 H       
  40 H40            0.0001    -0.5807     7.5691 H       
  41 H41            0.8734     0.5888     6.5503 H       
  42 H42            5.9851    -1.0349     1.1122 H       
  43 H43            7.5754     2.8360     0.1780 H       
  44 H44            3.3546     2.1829     0.1245 H       
  45 H45            3.3685     3.5400    -0.9880 H       
  46 H46            4.4843     5.3554    -2.3189 H       
  47 H47            2.8868     5.8334    -1.6962 H       
  48 H48            3.7377     5.5264     1.3000 H       
  49 H49            2.1784     5.0175     0.6087 H       
  50 H50            3.1983     3.8385     1.4678 H       
  51 H51            5.1517     7.7074    -2.4122 H       
  52 H52            3.5542     8.1854    -1.7895 H       
  53 H53            5.0299     8.6743    -0.9227 H       
  54 H54            8.0065    -1.6708     1.3861 H       
  55 H55            9.5352     2.0998     0.4686 H       
  56 H56           11.5781     0.4613     1.0014 H       
  57 H57           12.7769    -3.6774     3.1573 H       
  58 H58           11.0681    -5.2153     2.6040 H       
  59 H59           11.2139    -4.8812     0.8454 H       
  60 H60           13.8506    -5.1487     1.4188 H       
  61 H61           13.3418    -3.9949     0.1625 H       
  62 H62           14.6630    -2.2104     1.2664 H       
  63 H63           15.1717    -3.3641     2.5227 H       
  64 H64           15.6944    -3.5961     0.8371 H       
@<TRIPOS>BOND
   1    1    2 ar
   2    1    6 ar
   3    1    7 1
   4    2    3 ar
   5    2   36 1
   6    3    4 ar
   7    3   37 1
   8    4    5 ar
   9    4   11 1
  10    5    6 ar
  11    5   38 1
  12    7    8 2
  13    7    9 2
  14    7   10 1
  15   10   39 1
  16   10   40 1
  17   10   41 1
  18   11   12 1
  19   12   13 ar
  20   12   17 ar
  21   13   14 ar
  22   13   42 1
  23   14   15 ar
  24   14   25 1
  25   15   16 ar
  26   15   43 1
  27   16   17 ar
  28   16   18 1
  29   17   44 1
  30   18   19 1
  31   19   20 1
  32   19   21 1
  33   19   45 1
  34   20   22 1
  35   20   46 1
  36   20   47 1
  37   21   48 1
  38   21   49 1
  39   21   50 1
  40   22   23 1
  41   23   51 1
  42   23   52 1
  43   23   53 1
  44   24   25 1
  45   24   28 1
  46   24   54 1
  47   25   26 2
  48   26   27 1
  49   26   55 1
  50   27   28 2
  51   27   56 1
  52   28   30 1
  53   29   30 1
  54   29   33 1
  55   30   31 2
  56   31   32 1
  57   32   33 1
  58   32   34 1
  59   32   57 1
  60   33   58 1
  61   33   59 1
  62   34   35 1
  63   34   60 1
  64   34   61 1
  65   35   62 1
  66   35   63 1
  67   35   64 1

#	End of record

