#	Name: ASD03082040
#	Creating user name:	WinNT
#	Creation time:	15. 06. 2019 20:27

#	Modifying user name:	WinNT
#	Modification time:	15. 06. 2019 20:27

#	Program:	/corina/corina34_cracker 3.40 0067  02.08.2006

@<TRIPOS>MOLECULE
ASD03082040
  46   48    0    0    0
SMALL
NO_CHARGES


@<TRIPOS>ATOM
   1 C1             0.9488     0.0756     1.0729 C.3     
   2 C2             1.6113    -1.2722     1.3676 C.3     
   3 N3             2.3366    -1.7332     0.1769 N.3     
   4 C4             3.4057    -0.7957    -0.1898 C.3     
   5 C5             2.7969     0.5663    -0.5309 C.3     
   6 C6             2.0244     1.0928     0.6818 C.3     
   7 C7             3.9129     1.5488    -0.8916 C.3     
   8 O8             4.5718     1.1075    -2.1079 O.3     
   9 C9             5.5857     1.8684    -2.5650 C.2     
  10 C10            6.3015     1.4816    -3.7952 C.ar    
  11 O11            5.9102     2.8730    -1.9637 O.2     
  12 C12            6.0243     0.2626    -4.4152 C.ar    
  13 C13            6.6966    -0.0937    -5.5659 C.ar    
  14 C14            7.6476     0.7517    -6.1126 C.ar    
  15 C15            7.9355     1.9617    -5.5128 C.ar    
  16 C16            7.2641     2.3420    -4.3547 C.ar    
  17 C17            7.5698     3.6396    -3.7078 C.ar    
  18 C18            8.8767     3.9405    -3.3257 C.ar    
  19 C19            9.1554     5.1507    -2.7241 C.ar    
  20 C20            8.1412     6.0644    -2.4995 C.ar    
  21 C21            6.8428     5.7715    -2.8763 C.ar    
  22 C22            6.5528     4.5669    -3.4839 C.ar    
  23 C23            2.8696    -3.0875     0.3767 C.3     
  24 H24            0.2406    -0.0388     0.2523 H       
  25 H25            0.4236     0.4249     1.9618 H       
  26 H26            2.3092    -1.1601     2.1972 H       
  27 H27            0.8467    -2.0025     1.6325 H       
  28 H28            4.0953    -0.6859     0.6472 H       
  29 H29            3.9445    -1.1799    -1.0559 H       
  30 H30            2.1176     0.4597    -1.3767 H       
  31 H31            1.5530     2.0425     0.4291 H       
  32 H32            2.7106     1.2364     1.5164 H       
  33 H33            3.4876     2.5402    -1.0479 H       
  34 H34            4.6385     1.5886    -0.0792 H       
  35 H35            5.2842    -0.4017    -3.9942 H       
  36 H36            6.4802    -1.0380    -6.0433 H       
  37 H37            8.1677     0.4626    -7.0138 H       
  38 H38            8.6789     2.6150    -5.9450 H       
  39 H39            9.6691     3.2277    -3.4999 H       
  40 H40           10.1672     5.3849    -2.4278 H       
  41 H41            8.3640     7.0100    -2.0277 H       
  42 H42            6.0551     6.4886    -2.6981 H       
  43 H43            5.5388     4.3393    -3.7777 H       
  44 H44            2.0562    -3.7625     0.6428 H       
  45 H45            3.3411    -3.4318    -0.5437 H       
  46 H46            3.6070    -3.0729     1.1793 H       
@<TRIPOS>BOND
   1    1    2 1
   2    1    6 1
   3    1   24 1
   4    1   25 1
   5    2    3 1
   6    2   26 1
   7    2   27 1
   8    3    4 1
   9    3   23 1
  10    4    5 1
  11    4   28 1
  12    4   29 1
  13    5    6 1
  14    5    7 1
  15    5   30 1
  16    6   31 1
  17    6   32 1
  18    7    8 1
  19    7   33 1
  20    7   34 1
  21    8    9 1
  22    9   10 1
  23    9   11 2
  24   10   12 ar
  25   10   16 ar
  26   12   13 ar
  27   12   35 1
  28   13   14 ar
  29   13   36 1
  30   14   15 ar
  31   14   37 1
  32   15   16 ar
  33   15   38 1
  34   16   17 1
  35   17   18 ar
  36   17   22 ar
  37   18   19 ar
  38   18   39 1
  39   19   20 ar
  40   19   40 1
  41   20   21 ar
  42   20   41 1
  43   21   22 ar
  44   21   42 1
  45   22   43 1
  46   23   44 1
  47   23   45 1
  48   23   46 1

#	End of record

