#	Name: ASD03330648
#	Creating user name:	WinNT
#	Creation time:	15. 06. 2019 20:37

#	Modifying user name:	WinNT
#	Modification time:	15. 06. 2019 20:37

#	Program:	/corina/corina34_cracker 3.40 0067  02.08.2006

@<TRIPOS>MOLECULE
ASD03330648
  60   62    0    0    0
SMALL
NO_CHARGES


@<TRIPOS>ATOM
   1 C1            -0.3241     1.1704     0.8537 C.2     
   2 N2            -0.3530    -0.1685     1.0880 N.pl3   
   3 C3             0.9812     1.5565     0.8981 C.2     
   4 N4             1.7283     0.4570     1.1393 N.2     
   5 C5             0.9365    -0.5839     1.2490 C.2     
   6 C6             1.3697    -1.9751     1.5040 C.ar    
   7 C7             1.4880     2.9280     0.7149 C.2     
   8 O8             0.7118     3.8396     0.5013 O.2     
   9 C9             3.3155     4.5356     0.6020 C.3     
  10 N10            2.8116     3.1721     0.7841 N.am    
  11 C11            3.4899     4.8197    -0.8912 C.3     
  12 C12            2.1220     4.8045    -1.5765 C.3     
  13 C13            4.1380     6.1932    -1.0768 C.3     
  14 C14            4.3842     3.7456    -1.5137 C.3     
  15 C15            4.6442     4.6774     1.2989 C.2     
  16 N16            5.1808     5.8998     1.4844 N.am    
  17 O17            5.2306     3.6916     1.6928 O.2     
  18 C18            6.5050     6.0332     2.0967 C.3     
  19 C19           -1.5628    -0.9919     1.1641 C.3     
  20 C20           -2.4709    -0.6615    -0.0246 C.3     
  21 C21           -3.3820     0.5086     0.3321 C.3     
  22 N22           -2.7043     1.4512     1.2243 N.3     
  23 C23           -1.5222     2.0419     0.5793 C.3     
  24 C24           -3.6284     2.4953     1.6869 C.3     
  25 C25            0.5267    -2.8581     2.1798 C.ar    
  26 C26            0.9354    -4.1541     2.4151 C.ar    
  27 C27            2.1812    -4.5798     1.9820 C.ar    
  28 C28            3.0224    -3.7066     1.3108 C.ar    
  29 C29            2.6205    -2.4105     1.0646 C.ar    
  30 F30            2.5770    -5.8502     2.2154 F       
  31 H31            2.6051     5.2452     1.0263 H       
  32 H32            3.4307     2.4450     0.9545 H       
  33 H33            1.4850     5.5697    -1.1330 H       
  34 H34            2.2463     5.0069    -2.6403 H       
  35 H35            1.6604     3.8260    -1.4443 H       
  36 H36            5.0972     6.2152    -0.5595 H       
  37 H37            4.2937     6.3810    -2.1391 H       
  38 H38            3.4848     6.9619    -0.6638 H       
  39 H39            3.9225     2.7671    -1.3815 H       
  40 H40            4.5084     3.9480    -2.5775 H       
  41 H41            5.3587     3.7565    -1.0255 H       
  42 H42            4.6902     6.6912     1.2125 H       
  43 H43            6.4886     5.5984     3.0961 H       
  44 H44            7.2420     5.5120     1.4857 H       
  45 H45            6.7695     7.0885     2.1639 H       
  46 H46           -1.2885    -2.0463     1.1309 H       
  47 H47           -2.0895    -0.7805     2.0947 H       
  48 H48           -1.8581    -0.3944    -0.8856 H       
  49 H49           -3.0786    -1.5326    -0.2696 H       
  50 H50           -3.6728     1.0269    -0.5817 H       
  51 H51           -4.2760     0.1280     0.8262 H       
  52 H52           -1.3473     3.0394     0.9824 H       
  53 H53           -1.6876     2.1060    -0.4962 H       
  54 H54           -4.4552     2.0350     2.2278 H       
  55 H55           -3.0993     3.1819     2.3479 H       
  56 H56           -4.0162     3.0437     0.8285 H       
  57 H57           -0.4440    -2.5271     2.5184 H       
  58 H58            0.2837    -4.8383     2.9381 H       
  59 H59            3.9923    -4.0431     0.9756 H       
  60 H60            3.2766    -1.7309     0.5411 H       
@<TRIPOS>BOND
   1    1    2 1
   2    1    3 2
   3    1   23 1
   4    2   19 1
   5    2    5 1
   6    3    4 1
   7    3    7 1
   8    4    5 2
   9    5    6 1
  10    6   25 ar
  11    6   29 ar
  12    7    8 2
  13    7   10 am
  14    9   10 1
  15    9   11 1
  16    9   15 1
  17    9   31 1
  18   10   32 1
  19   11   12 1
  20   11   13 1
  21   11   14 1
  22   12   33 1
  23   12   34 1
  24   12   35 1
  25   13   36 1
  26   13   37 1
  27   13   38 1
  28   14   39 1
  29   14   40 1
  30   14   41 1
  31   15   16 am
  32   15   17 2
  33   16   18 1
  34   16   42 1
  35   18   43 1
  36   18   44 1
  37   18   45 1
  38   19   20 1
  39   19   46 1
  40   19   47 1
  41   20   21 1
  42   20   48 1
  43   20   49 1
  44   21   22 1
  45   21   50 1
  46   21   51 1
  47   22   23 1
  48   22   24 1
  49   23   52 1
  50   23   53 1
  51   24   54 1
  52   24   55 1
  53   24   56 1
  54   25   26 ar
  55   25   57 1
  56   26   27 ar
  57   26   58 1
  58   27   28 ar
  59   27   30 1
  60   28   29 ar
  61   28   59 1
  62   29   60 1

#	End of record

