#	Name: ASD05920007
#	Creating user name:	WinNT
#	Creation time:	15. 06. 2019 21:04

#	Modifying user name:	WinNT
#	Modification time:	15. 06. 2019 21:04

#	Program:	/corina/corina34_cracker 3.40 0067  02.08.2006

@<TRIPOS>MOLECULE
ASD05920007
  32   31    0    0    0
SMALL
NO_CHARGES


@<TRIPOS>ATOM
   1 N1            -1.1586    -0.7024    -0.0443 N.pl3   
   2 C2             0.0060     0.0127     0.1039 C.2     
   3 N3             1.2057    -0.6488     0.2651 N.pl3   
   4 C4             1.2201    -2.0153     0.4525 C.2     
   5 N5             2.4155    -2.6743     0.6149 N.pl3   
   6 C6             2.4308    -4.1256     0.8139 C.3     
   7 C7             3.8759    -4.6042     0.9668 C.3     
   8 N8             3.8912    -6.0556     1.1658 N.pl3   
   9 C9             5.0866    -6.7145     1.3282 C.2     
  10 N10            5.1131    -8.0927     1.3793 N.pl3   
  11 C11            3.9321    -8.8054     1.3883 C.2     
  12 N12            3.9514   -10.1652     1.5884 N.pl3   
  13 N13           -0.0232     1.3148     0.0922 N.2     
  14 N14            0.1009    -2.6813     0.4756 N.2     
  15 N15            6.1943    -6.0375     1.4339 N.2     
  16 N16            2.7986    -8.1898     1.2072 N.2     
  17 H17           -1.1278    -1.6203    -0.3563 H       
  18 H18           -2.0109    -0.2903     0.1670 H       
  19 H19            2.0392    -0.1530     0.2467 H       
  20 H20            3.2489    -2.1783     0.5977 H       
  21 H21            1.8683    -4.3749     1.7137 H       
  22 H22            1.9750    -4.6152    -0.0468 H       
  23 H23            4.4384    -4.3550     0.0670 H       
  24 H24            4.3317    -4.1147     1.8275 H       
  25 H25            3.0577    -6.5516     1.1830 H       
  26 H26            5.9622    -8.5607     1.4088 H       
  27 H27            4.7955   -10.6236     1.7232 H       
  28 H28            3.1209   -10.6663     1.5947 H       
  29 H29            0.7858     1.8197     0.2693 H       
  30 H30            0.1111    -3.6423     0.6073 H       
  31 H31            7.0447    -6.5023     1.4752 H       
  32 H32            1.9681    -8.6909     1.2135 H       
@<TRIPOS>BOND
   1    1    2 1
   2    1   17 1
   3    1   18 1
   4    2    3 1
   5    2   13 2
   6    3    4 1
   7    3   19 1
   8    4    5 1
   9    4   14 2
  10    5    6 1
  11    5   20 1
  12    6    7 1
  13    6   21 1
  14    6   22 1
  15    7    8 1
  16    7   23 1
  17    7   24 1
  18    8    9 1
  19    8   25 1
  20    9   10 1
  21    9   15 2
  22   10   11 1
  23   10   26 1
  24   11   12 1
  25   11   16 2
  26   12   27 1
  27   12   28 1
  28   13   29 1
  29   14   30 1
  30   15   31 1
  31   16   32 1

#	End of record

