#	Name: ASD03240779
#	Creating user name:	WinNT
#	Creation time:	15. 06. 2019 20:35

#	Modifying user name:	WinNT
#	Modification time:	15. 06. 2019 20:35

#	Program:	/corina/corina34_cracker 3.40 0067  02.08.2006

@<TRIPOS>MOLECULE
ASD03240779
  77   83    0    0    0
SMALL
NO_CHARGES


@<TRIPOS>ATOM
   1 C1            -0.0144     1.2086     0.0087 C.2     
   2 O2             0.0621     0.0476    -0.3336 O.2     
   3 N3             3.7953     2.7927    -1.0219 N.3     
   4 C4             3.7215     2.0168     0.2227 C.3     
   5 C5             2.4581     1.1533     0.2129 C.3     
   6 C6             1.2292     2.0569     0.0792 C.3     
   7 C7             1.3541     2.8891    -1.2001 C.3     
   8 C8             2.6496     3.7023    -1.1493 C.3     
   9 C9             5.0638     3.5284    -1.1092 C.3     
  10 C10            5.2130     4.1102    -2.4914 C.ar    
  11 C11            4.7259     5.3765    -2.7620 C.ar    
  12 C12            4.8598     5.9149    -4.0253 C.ar    
  13 C13            5.4879     5.1796    -5.0306 C.ar    
  14 C14            5.9769     3.9034    -4.7515 C.ar    
  15 C15            5.8416     3.3781    -3.4828 C.ar    
  16 C16            3.8784     8.4112    -9.8335 C.2     
  17 N17            4.9490     8.1782   -10.6133 N.2     
  18 C18            5.9425     7.4233   -10.2205 C.2     
  19 C19            5.8897     6.8142    -8.8931 C.ar    
  20 C20            4.7632     7.0622    -8.0797 C.ar    
  21 N21            3.7626     7.8727    -8.5806 N.pl3   
  22 C22            6.9209     5.9982    -8.4167 C.ar    
  23 C23            6.7881     5.4584    -7.1413 C.ar    
  24 C24            5.6344     5.7514    -6.3888 C.ar    
  25 N25            4.6781     6.5294    -6.8735 N.ar    
  26 N26            2.5454     8.3035    -8.0393 N.2     
  27 C27            1.9408     9.0697    -8.9152 C.2     
  28 C28            2.7319     9.1624   -10.0534 C.2     
  29 C29            7.8478     4.5855    -6.5817 C.ar    
  30 C30            8.3375     3.5140    -7.3268 C.ar    
  31 C31            9.3242     2.7050    -6.8009 C.ar    
  32 C32            9.8269     2.9556    -5.5367 C.ar    
  33 C33            9.3445     4.0172    -4.7926 C.ar    
  34 C34            8.3622     4.8366    -5.3106 C.ar    
  35 C35            0.6033     9.7363    -8.7209 C.3     
  36 N36           -1.2123     1.7417     0.3207 N.am    
  37 C37           -2.4285     0.9469     0.1418 C.3     
  38 C38           -3.0814     0.6971     1.5048 C.3     
  39 S39           -3.4524     2.2961     2.2832 S.o2    
  40 C40           -1.8176     3.0883     2.2719 C.3     
  41 C41           -1.2848     3.1080     0.8410 C.3     
  42 O42           -4.3182     3.0284     1.4269 O.2     
  43 O43           -3.8369     2.0667     3.6318 O.2     
  44 H44            4.5992     1.3754     0.3034 H       
  45 H45            3.6897     2.6973     1.0735 H       
  46 H46            2.4956     0.4630    -0.6298 H       
  47 H47            2.3956     0.5893     1.1435 H       
  48 H48            1.1692     2.7203     0.9420 H       
  49 H49            1.3743     2.2261    -2.0650 H       
  50 H50            0.5029     3.5653    -1.2789 H       
  51 H51            2.6228     4.3749    -0.2920 H       
  52 H52            2.7486     4.2851    -2.0651 H       
  53 H53            5.0686     4.3329    -0.3739 H       
  54 H54            5.8924     2.8489    -0.9097 H       
  55 H55            4.2394     5.9446    -1.9828 H       
  56 H56            4.4788     6.9034    -4.2354 H       
  57 H57            6.4638     3.3292    -5.5258 H       
  58 H58            6.2234     2.3918    -3.2644 H       
  59 H59            6.7900     7.2529   -10.8678 H       
  60 H60            7.7926     5.7929    -9.0203 H       
  61 H61            2.4978     9.7203   -10.9481 H       
  62 H62            7.9452     3.3170    -8.3135 H       
  63 H63            9.7044     1.8746    -7.3773 H       
  64 H64           10.5988     2.3197    -5.1291 H       
  65 H65            9.7404     4.2079    -3.8060 H       
  66 H66            7.9895     5.6678    -4.7306 H       
  67 H67            0.7493    10.7211    -8.2771 H       
  68 H68            0.1067     9.8425    -9.6854 H       
  69 H69           -0.0134     9.1276    -8.0597 H       
  70 H70           -3.1241     1.4869    -0.5006 H       
  71 H71           -2.1743    -0.0074    -0.3195 H       
  72 H72           -4.0050     0.1342     1.3693 H       
  73 H73           -2.3979     0.1324     2.1389 H       
  74 H74           -1.9042     4.1090     2.6444 H       
  75 H75           -1.1341     2.5236     2.9059 H       
  76 H76           -0.2899     3.5532     0.8324 H       
  77 H77           -1.9528     3.7000     0.2153 H       
@<TRIPOS>BOND
   1    1    2 2
   2    1    6 1
   3    1   36 am
   4    3    4 1
   5    3    8 1
   6    3    9 1
   7    4    5 1
   8    4   44 1
   9    4   45 1
  10    5    6 1
  11    5   46 1
  12    5   47 1
  13    6    7 1
  14    6   48 1
  15    7    8 1
  16    7   49 1
  17    7   50 1
  18    8   51 1
  19    8   52 1
  20    9   10 1
  21    9   53 1
  22    9   54 1
  23   10   11 ar
  24   10   15 ar
  25   11   12 ar
  26   11   55 1
  27   12   13 ar
  28   12   56 1
  29   13   14 ar
  30   13   24 1
  31   14   15 ar
  32   14   57 1
  33   15   58 1
  34   16   17 1
  35   16   21 1
  36   16   28 2
  37   17   18 2
  38   18   19 1
  39   18   59 1
  40   19   20 ar
  41   19   22 ar
  42   20   21 1
  43   20   25 ar
  44   21   26 1
  45   22   23 ar
  46   22   60 1
  47   23   24 ar
  48   23   29 1
  49   24   25 ar
  50   26   27 2
  51   27   28 1
  52   27   35 1
  53   28   61 1
  54   29   30 ar
  55   29   34 ar
  56   30   31 ar
  57   30   62 1
  58   31   32 ar
  59   31   63 1
  60   32   33 ar
  61   32   64 1
  62   33   34 ar
  63   33   65 1
  64   34   66 1
  65   35   67 1
  66   35   68 1
  67   35   69 1
  68   36   37 1
  69   36   41 1
  70   37   38 1
  71   37   70 1
  72   37   71 1
  73   38   39 1
  74   38   72 1
  75   38   73 1
  76   39   40 1
  77   39   42 2
  78   39   43 2
  79   40   41 1
  80   40   74 1
  81   40   75 1
  82   41   76 1
  83   41   77 1

#	End of record

