#	Name: ASD04910230
#	Creating user name:	WinNT
#	Creation time:	15. 06. 2019 20:55

#	Modifying user name:	WinNT
#	Modification time:	15. 06. 2019 20:55

#	Program:	/corina/corina34_cracker 3.40 0067  02.08.2006

@<TRIPOS>MOLECULE
ASD04910230
  60   62    0    0    0
SMALL
NO_CHARGES


@<TRIPOS>ATOM
   1 C1            -1.2005    -2.2057    -5.8431 C.2     
   2 C2            -0.8759    -2.6879    -4.4886 C.ar    
   3 C3             0.2177    -3.5436    -4.2803 C.ar    
   4 C4             0.4823    -3.9662    -3.0060 C.ar    
   5 C5            -0.3344    -3.5386    -1.9601 C.ar    
   6 N6            -1.3614    -2.7300    -2.1838 N.ar    
   7 C7            -1.6478    -2.2958    -3.3933 C.ar    
   8 O8            -0.5197    -2.5485    -6.7895 O.2     
   9 O9            -2.2555    -1.3891    -6.0328 O.3     
  10 N10           -0.0697    -3.9646    -0.6698 N.pl3   
  11 C11            1.0105    -4.9225    -0.4217 C.3     
  12 C12            1.5224    -4.7545     1.0103 C.3     
  13 C13            2.1101    -3.3521     1.1805 C.3     
  14 C14            2.4965    -3.1355     2.6450 C.3     
  15 C15            3.3522    -3.2093     0.2988 C.3     
  16 C16            0.4910    -6.3248    -0.6082 C.ar    
  17 C17            1.2779    -7.2747    -1.2333 C.ar    
  18 C18            0.8045    -8.5608    -1.4056 C.ar    
  19 C19           -0.4625    -8.8995    -0.9501 C.ar    
  20 C20           -1.2500    -7.9437    -0.3224 C.ar    
  21 C21           -0.7692    -6.6606    -0.1487 C.ar    
  22 N22           -0.9459   -10.2038    -1.1239 N.pl3   
  23 N23           -1.0268   -10.8981    -2.3379 N.2     
  24 C24           -1.5280   -12.0832    -2.0988 C.2     
  25 C25           -1.7825   -12.1825    -0.7266 C.2     
  26 C26           -1.4114   -11.0166    -0.1486 C.2     
  27 C27           -2.3622   -13.3789    -0.0168 C.3     
  28 F28           -2.6133   -14.3952    -0.9447 F       
  29 F29           -1.4531   -13.8375     0.9426 F       
  30 F30           -3.5582   -13.0144     0.6108 F       
  31 C31           -2.6259    -8.3072     0.1734 C.3     
  32 C32            1.6622    -9.5951    -2.0878 C.3     
  33 C33           -2.5158    -0.9536    -7.3932 C.3     
  34 H34            0.8357    -3.8614    -5.1070 H       
  35 H35            1.3158    -4.6250    -2.8123 H       
  36 H36           -2.4889    -1.6343    -3.5399 H       
  37 H37           -0.5996    -3.6288     0.0701 H       
  38 H38            1.8254    -4.7408    -1.1225 H       
  39 H39            0.6971    -4.8899     1.7093 H       
  40 H40            2.2936    -5.4984     1.2101 H       
  41 H41            1.3685    -2.6093     0.8867 H       
  42 H42            3.2381    -3.8783     2.9388 H       
  43 H43            2.9152    -2.1364     2.7663 H       
  44 H44            1.6116    -3.2373     3.2732 H       
  45 H45            3.0613    -3.2632    -0.7503 H       
  46 H46            3.8284    -2.2486     0.4948 H       
  47 H47            4.0520    -4.0142     0.5236 H       
  48 H48            2.2634    -7.0107    -1.5874 H       
  49 H49           -1.3799    -5.9176     0.3428 H       
  50 H50           -1.7137   -12.8520    -2.8343 H       
  51 H51           -1.4772   -10.7774     0.9025 H       
  52 H52           -2.5657    -8.6185     1.2163 H       
  53 H53           -3.2827    -7.4414     0.0900 H       
  54 H54           -3.0244    -9.1248    -0.4273 H       
  55 H55            2.3038   -10.0785    -1.3510 H       
  56 H56            1.0242   -10.3422    -2.5599 H       
  57 H57            2.2791    -9.1128    -2.8460 H       
  58 H58           -3.3901    -0.3028    -7.4054 H       
  59 H59           -1.6514    -0.4079    -7.7717 H       
  60 H60           -2.7013    -1.8230    -8.0239 H       
@<TRIPOS>BOND
   1    1    2 1
   2    1    8 2
   3    1    9 1
   4    2    3 ar
   5    2    7 ar
   6    3    4 ar
   7    3   34 1
   8    4    5 ar
   9    4   35 1
  10    5    6 ar
  11    5   10 1
  12    6    7 ar
  13    7   36 1
  14    9   33 1
  15   10   11 1
  16   10   37 1
  17   11   12 1
  18   11   16 1
  19   11   38 1
  20   12   13 1
  21   12   39 1
  22   12   40 1
  23   13   14 1
  24   13   15 1
  25   13   41 1
  26   14   42 1
  27   14   43 1
  28   14   44 1
  29   15   45 1
  30   15   46 1
  31   15   47 1
  32   16   17 ar
  33   16   21 ar
  34   17   18 ar
  35   17   48 1
  36   18   19 ar
  37   18   32 1
  38   19   20 ar
  39   19   22 1
  40   20   21 ar
  41   20   31 1
  42   21   49 1
  43   22   23 1
  44   22   26 1
  45   23   24 2
  46   24   25 1
  47   24   50 1
  48   25   26 2
  49   25   27 1
  50   26   51 1
  51   27   28 1
  52   27   29 1
  53   27   30 1
  54   31   52 1
  55   31   53 1
  56   31   54 1
  57   32   55 1
  58   32   56 1
  59   32   57 1
  60   33   58 1
  61   33   59 1
  62   33   60 1

#	End of record

