#	Name: ASD01881469
#	Creating user name:	WinNT
#	Creation time:	15. 06. 2019 19:42

#	Modifying user name:	WinNT
#	Modification time:	15. 06. 2019 19:42

#	Program:	/corina/corina34_cracker 3.40 0067  02.08.2006

@<TRIPOS>MOLECULE
ASD01881469
  45   49    0    0    0
SMALL
NO_CHARGES


@<TRIPOS>ATOM
   1 C1             0.1971     1.2243     1.7642 C.2     
   2 C2             0.2083    -0.1658     1.5515 C.2     
   3 C3             1.2687    -0.7306     0.8660 C.2     
   4 C4             2.3138     0.1020     0.3967 C.2     
   5 C5             2.2740     1.4293     0.6168 C.2     
   6 N6             1.2311     1.9960     1.2921 N.pl3   
   7 N7            -0.2067     3.2501     2.2912 N.2     
   8 N8            -0.6527     2.0452     2.3620 N.2     
   9 C9             0.9336     3.2753     1.6508 C.2     
  10 C10            1.3110    -2.1917     0.6257 C.ar    
  11 C11            1.2400    -2.6884    -0.6759 C.ar    
  12 C12            1.2795    -4.0487    -0.8961 C.ar    
  13 C13            1.3896    -4.9244     0.1763 C.ar    
  14 C14            1.4605    -4.4332     1.4735 C.ar    
  15 C15            1.4277    -3.0738     1.7002 C.ar    
  16 O16            1.4274    -6.2643    -0.0440 O.3     
  17 C17            0.2517    -6.9456    -0.0362 C.ar    
  18 C18           -0.9484    -6.2594     0.0838 C.ar    
  19 C19           -2.1422    -6.9543     0.0910 C.ar    
  20 C20           -2.1420    -8.3324    -0.0213 C.ar    
  21 C21           -0.9476    -9.0186    -0.1410 C.ar    
  22 C22            0.2488    -8.3282    -0.1540 C.ar    
  23 C23            1.7652     4.4981     1.3604 C.3     
  24 C24            1.3406     5.0966     0.0179 C.3     
  25 C25            1.9886     6.4170    -0.4035 C.3     
  26 C26            2.3775     5.1151    -1.1069 C.3     
  27 Cl27          -1.0887    -1.1578     2.1408 Cl      
  28 H28            3.1460    -0.3297    -0.1396 H       
  29 H29            3.0771     2.0541     0.2547 H       
  30 H30            1.1537    -2.0081    -1.5102 H       
  31 H31            1.2246    -4.4339    -1.9036 H       
  32 H32            1.5457    -5.1169     2.3052 H       
  33 H33            1.4878    -2.6923     2.7087 H       
  34 H34           -0.9490    -5.1830     0.1719 H       
  35 H35           -3.0765    -6.4207     0.1847 H       
  36 H36           -3.0765    -8.8739    -0.0151 H       
  37 H37           -0.9502   -10.0951    -0.2285 H       
  38 H38            1.1812    -8.8642    -0.2520 H       
  39 H39            1.6163     5.2347     2.1500 H       
  40 H40            2.8181     4.2196     1.3173 H       
  41 H41            0.2989     4.9359    -0.2600 H       
  42 H42            1.3734     7.1248    -0.9591 H       
  43 H43            2.7175     6.8592     0.2757 H       
  44 H44            3.3623     4.7009    -0.8905 H       
  45 H45            2.0182     4.9664    -2.1252 H       
@<TRIPOS>BOND
   1    1    2 1
   2    1    6 1
   3    1    8 2
   4    2    3 2
   5    2   27 1
   6    3    4 1
   7    3   10 1
   8    4    5 2
   9    4   28 1
  10    5    6 1
  11    5   29 1
  12    6    9 1
  13    7    8 1
  14    7    9 2
  15    9   23 1
  16   10   11 ar
  17   10   15 ar
  18   11   12 ar
  19   11   30 1
  20   12   13 ar
  21   12   31 1
  22   13   14 ar
  23   13   16 1
  24   14   15 ar
  25   14   32 1
  26   15   33 1
  27   16   17 1
  28   17   18 ar
  29   17   22 ar
  30   18   19 ar
  31   18   34 1
  32   19   20 ar
  33   19   35 1
  34   20   21 ar
  35   20   36 1
  36   21   22 ar
  37   21   37 1
  38   22   38 1
  39   23   24 1
  40   23   39 1
  41   23   40 1
  42   24   25 1
  43   24   26 1
  44   24   41 1
  45   25   26 1
  46   25   42 1
  47   25   43 1
  48   26   44 1
  49   26   45 1

#	End of record

