#	Name: ASD01411162
#	Creating user name:	WinNT
#	Creation time:	15. 06. 2019 19:19

#	Modifying user name:	WinNT
#	Modification time:	15. 06. 2019 19:19

#	Program:	/corina/corina34_cracker 3.40 0067  02.08.2006

@<TRIPOS>MOLECULE
ASD01411162
  45   48    0    0    0
SMALL
NO_CHARGES


@<TRIPOS>ATOM
   1 C1            -0.0170     1.3746     0.0121 C.ar    
   2 C2             0.3137     0.5884    -1.0721 C.ar    
   3 C3             1.5341    -0.0875    -1.0982 C.ar    
   4 C4             2.4188     0.0367    -0.0203 C.ar    
   5 C5             2.0722     0.8334     1.0672 C.ar    
   6 C6             0.8566     1.4983     1.0785 C.ar    
   7 O7             2.9258     0.9587     2.1182 O.3     
   8 C8             2.5051     1.7924     3.1999 C.3     
   9 C9             3.5714     1.8100     4.2647 C.ar    
  10 N10            3.6432    -0.6361    -0.0358 N.am    
  11 C11            4.7580     0.0029    -0.4423 C.2     
  12 C12            6.0703    -0.6717    -0.3540 C.ar    
  13 O13            4.6844     1.1341    -0.8816 O.2     
  14 C14            5.5282     1.8422     6.2181 C.ar    
  15 C15            4.5288     0.8862     6.2554 C.ar    
  16 C16            3.5513     0.8702     5.2783 C.ar    
  17 C17            4.5725     2.7625     4.2242 C.ar    
  18 C18            5.5510     2.7790     5.2002 C.ar    
  19 C19            7.2269    -0.0127    -0.7741 C.ar    
  20 C20            8.4485    -0.6480    -0.6891 C.ar    
  21 C21            8.5288    -1.9355    -0.1887 C.ar    
  22 C22            7.3862    -2.5943     0.2295 C.ar    
  23 C23            6.1591    -1.9684     0.1552 C.ar    
  24 Cl24           6.7559     1.8633     7.4452 Cl      
  25 C25            1.8911    -0.9313    -2.2587 C.2     
  26 N26            1.1357    -1.1423    -3.3654 N.pl3   
  27 N27            1.8968    -2.0062    -4.1722 N.2     
  28 N28            2.9926    -2.2433    -3.5364 N.2     
  29 N29            3.0051    -1.6158    -2.4160 N.2     
  30 H30           -0.9605     1.8999     0.0269 H       
  31 H31           -0.3725     0.4957    -1.9009 H       
  32 H32            0.5898     2.1162     1.9231 H       
  33 H33            2.3397     2.8059     2.8345 H       
  34 H34            1.5783     1.4019     3.6203 H       
  35 H35            3.6908    -1.5630     0.2459 H       
  36 H36            4.5105     0.1547     7.0497 H       
  37 H37            2.7715     0.1236     5.3069 H       
  38 H38            4.5902     3.4938     3.4296 H       
  39 H39            6.3309     3.5255     5.1706 H       
  40 H40            7.1656     0.9921    -1.1652 H       
  41 H41            9.3441    -0.1395    -1.0141 H       
  42 H42            9.4875    -2.4285    -0.1245 H       
  43 H43            7.4557    -3.5992     0.6191 H       
  44 H44            5.2686    -2.4819     0.4864 H       
  45 H45            0.2584    -0.7761    -3.5585 H       
@<TRIPOS>BOND
   1    1    2 ar
   2    1    6 ar
   3    1   30 1
   4    2    3 ar
   5    2   31 1
   6    3    4 ar
   7    3   25 1
   8    4    5 ar
   9    4   10 1
  10    5    6 ar
  11    5    7 1
  12    6   32 1
  13    7    8 1
  14    8    9 1
  15    8   33 1
  16    8   34 1
  17    9   17 ar
  18    9   16 ar
  19   10   11 am
  20   10   35 1
  21   11   12 1
  22   11   13 2
  23   12   19 ar
  24   12   23 ar
  25   14   15 ar
  26   14   18 ar
  27   14   24 1
  28   15   16 ar
  29   15   36 1
  30   16   37 1
  31   17   18 ar
  32   17   38 1
  33   18   39 1
  34   19   20 ar
  35   19   40 1
  36   20   21 ar
  37   20   41 1
  38   21   22 ar
  39   21   42 1
  40   22   23 ar
  41   22   43 1
  42   23   44 1
  43   25   26 1
  44   25   29 2
  45   26   27 1
  46   26   45 1
  47   27   28 2
  48   28   29 1

#	End of record

