#	Name: ASD03330383
#	Creating user name:	WinNT
#	Creation time:	15. 06. 2019 20:37

#	Modifying user name:	WinNT
#	Modification time:	15. 06. 2019 20:37

#	Program:	/corina/corina34_cracker 3.40 0067  02.08.2006

@<TRIPOS>MOLECULE
ASD03330383
  71   75    0    0    0
SMALL
NO_CHARGES


@<TRIPOS>ATOM
   1 C1            -0.2142     1.5527    -0.5302 C.3     
   2 N2            -0.1929     0.0829    -0.4803 N.am    
   3 C3             0.4527    -0.6387    -1.5935 C.3     
   4 C4             1.7319     0.0963    -1.9108 C.2     
   5 N5             2.0548     1.3137    -1.4063 N.pl3   
   6 C6             1.2233     2.0820    -0.4768 C.3     
   7 C7             2.7514    -0.2933    -2.7177 C.2     
   8 N8             3.6816     0.6880    -2.7045 N.2     
   9 C9             3.2689     1.6573    -1.9204 C.2     
  10 C10            4.0000     2.9132    -1.6424 C.ar    
  11 C11            5.0695     3.2952    -2.4527 C.ar    
  12 C12            2.8306    -1.5573    -3.4711 C.2     
  13 O13            1.9244    -2.3654    -3.4002 O.2     
  14 C14            3.9860    -3.0746    -4.9878 C.3     
  15 N15            3.9073    -1.8180    -4.2388 N.am    
  16 C16           -0.7461    -0.5847     0.5516 C.2     
  17 O17           -1.1875     0.0274     1.5050 O.2     
  18 C18            5.7469     4.4678    -2.1885 C.ar    
  19 C19            5.3676     5.2642    -1.1227 C.ar    
  20 C20            4.3079     4.8909    -0.3155 C.ar    
  21 C21            3.6190     3.7233    -0.5724 C.ar    
  22 C22            4.9180    -2.9112    -6.2271 C.3     
  23 C23            5.0462    -3.6142    -2.7597 C.3     
  24 C24            4.6619    -4.1704    -4.1323 C.3     
  25 N25           -0.8102    -1.9307     0.5266 N.am    
  26 C26            3.7319    -5.3753    -3.9770 C.3     
  27 C27            4.7187    -4.2259    -7.0414 C.3     
  28 C28            5.3946    -5.3217    -6.1859 C.3     
  29 C29            5.9387    -4.5659    -4.9353 C.3     
  30 C30            6.3191    -3.1838    -5.5744 C.3     
  31 C31            4.7633    -1.6077    -7.0131 C.3     
  32 C32           -1.3079    -2.6621     1.6943 C.3     
  33 C33           -2.8352    -2.7347     1.6377 C.3     
  34 C34           -0.7297    -4.0786     1.6933 C.3     
  35 H35           -0.6878     1.8785    -1.4563 H       
  36 H36           -0.7755     1.9376     0.3212 H       
  37 H37            0.6764    -1.6624    -1.2933 H       
  38 H38           -0.2017    -0.6401    -2.4652 H       
  39 H39            1.2348     3.1339    -0.7623 H       
  40 H40            1.6136     1.9743     0.5352 H       
  41 H41            5.3668     2.6742    -3.2848 H       
  42 H42            2.9914    -3.3931    -5.2997 H       
  43 H43            4.6301    -1.1735    -4.2954 H       
  44 H44            6.5752     4.7645    -2.8148 H       
  45 H45            5.9012     6.1809    -0.9198 H       
  46 H46            4.0166     5.5168     0.5150 H       
  47 H47            2.7920     3.4329     0.0585 H       
  48 H48            4.1508    -3.2646    -2.2457 H       
  49 H49            5.5208    -4.3983    -2.1698 H       
  50 H50            5.7406    -2.7835    -2.8856 H       
  51 H51           -0.5267    -2.4151    -0.2645 H       
  52 H52            2.9014    -5.1112    -3.3223 H       
  53 H53            3.3461    -5.6648    -4.9545 H       
  54 H54            4.2856    -6.2082    -3.5437 H       
  55 H55            3.6570    -4.4401    -7.1634 H       
  56 H56            5.2058    -4.1484    -8.0135 H       
  57 H57            4.6652    -6.0746    -5.8873 H       
  58 H58            6.2140    -5.7829    -6.7374 H       
  59 H59            6.7173    -5.0783    -4.3702 H       
  60 H60            7.1062    -3.2820    -6.3220 H       
  61 H61            6.5699    -2.4392    -4.8189 H       
  62 H62            4.9766    -0.7618    -6.3596 H       
  63 H63            5.4600    -1.6040    -7.8514 H       
  64 H64            3.7430    -1.5286    -7.3884 H       
  65 H65           -1.0022    -2.1455     2.6041 H       
  66 H66           -3.2055    -3.2789     2.5065 H       
  67 H67           -3.2471    -1.7255     1.6383 H       
  68 H68           -3.1409    -3.2513     0.7279 H       
  69 H69            0.3584    -4.0269     1.7337 H       
  70 H70           -1.1000    -4.6228     2.5621 H       
  71 H71           -1.0354    -4.5953     0.7835 H       
@<TRIPOS>BOND
   1    1    2 1
   2    1    6 1
   3    1   35 1
   4    1   36 1
   5    2    3 1
   6    2   16 am
   7    3    4 1
   8    3   37 1
   9    3   38 1
  10    4    5 1
  11    4    7 2
  12    5    6 1
  13    5    9 1
  14    6   39 1
  15    6   40 1
  16    7    8 1
  17    7   12 1
  18    8    9 2
  19    9   10 1
  20   10   11 ar
  21   10   21 ar
  22   11   18 ar
  23   11   41 1
  24   12   13 2
  25   12   15 am
  26   14   22 1
  27   14   15 1
  28   14   24 1
  29   14   42 1
  30   15   43 1
  31   16   17 2
  32   16   25 am
  33   18   19 ar
  34   18   44 1
  35   19   20 ar
  36   19   45 1
  37   20   21 ar
  38   20   46 1
  39   21   47 1
  40   22   27 1
  41   22   31 1
  42   22   30 1
  43   23   24 1
  44   23   48 1
  45   23   49 1
  46   23   50 1
  47   24   26 1
  48   24   29 1
  49   25   32 1
  50   25   51 1
  51   26   52 1
  52   26   53 1
  53   26   54 1
  54   27   28 1
  55   27   55 1
  56   27   56 1
  57   28   29 1
  58   28   57 1
  59   28   58 1
  60   29   30 1
  61   29   59 1
  62   30   60 1
  63   30   61 1
  64   31   62 1
  65   31   63 1
  66   31   64 1
  67   32   33 1
  68   32   34 1
  69   32   65 1
  70   33   66 1
  71   33   67 1
  72   33   68 1
  73   34   69 1
  74   34   70 1
  75   34   71 1

#	End of record

