#	Name: ASD03092417
#	Creating user name:	WinNT
#	Creation time:	15. 06. 2019 20:32

#	Modifying user name:	WinNT
#	Modification time:	15. 06. 2019 20:32

#	Program:	/corina/corina34_cracker 3.40 0067  02.08.2006

@<TRIPOS>MOLECULE
ASD03092417
  56   59    0    0    0
SMALL
NO_CHARGES


@<TRIPOS>ATOM
   1 C1             0.3408     1.9907     0.1457 C.2     
   2 C2             0.5546     0.5306     0.2249 C.ar    
   3 C3             1.8507     0.0117     0.2368 C.ar    
   4 C4             2.0439    -1.3516     0.3113 C.ar    
   5 C5             0.9553    -2.2058     0.3743 C.ar    
   6 C6            -0.3329    -1.6968     0.3629 C.ar    
   7 C7            -0.5386    -0.3350     0.2940 C.ar    
   8 O8             1.2945     2.7426     0.0908 O.2     
   9 N9            -0.9116     2.4885     0.1288 N.am    
  10 C10           -1.1235     3.9360     0.0503 C.3     
  11 S11           -4.9829     4.7251    -0.6384 S.3     
  12 C12           -4.5796     4.5785     1.0163 C.2     
  13 N13           -3.3137     4.3234     1.1505 N.2     
  14 C14           -2.6020     4.2277     0.0468 C.2     
  15 C15           -3.3080     4.4129    -1.0867 C.2     
  16 C16           -3.0728     5.3720    -3.3793 C.ar    
  17 C17           -2.7716     4.3629    -2.4628 C.ar    
  18 C18           -1.9523     3.3030    -2.8693 C.ar    
  19 C19           -1.4756     3.3037    -4.1684 C.ar    
  20 C20           -1.8201     4.3412    -5.0157 C.ar    
  21 N21           -2.5943     5.3275    -4.6053 N.ar    
  22 C22           -1.3023     4.3453    -6.4309 C.3     
  23 N23           -5.4747     4.7126     2.0634 N.3     
  24 C24           -6.8282     4.9991     1.5661 C.3     
  25 C25           -7.7715     5.1985     2.7554 C.3     
  26 O26           -7.7350     4.0353     3.5866 O.3     
  27 C27           -6.4319     3.7272     4.0890 C.3     
  28 C28           -5.4751     3.5129     2.9132 C.3     
  29 C29           -6.4978     2.4527     4.9329 C.3     
  30 C30           -9.1973     5.4176     2.2455 C.3     
  31 Cl31           1.2064    -3.9210     0.4674 Cl      
  32 H32            2.7002     0.6767     0.1874 H       
  33 H33            3.0460    -1.7542     0.3202 H       
  34 H34           -1.1779    -2.3677     0.4119 H       
  35 H35           -1.5434     0.0609     0.2896 H       
  36 H36           -1.6726     1.8884     0.1686 H       
  37 H37           -0.6600     4.4182     0.9110 H       
  38 H38           -0.6753     4.3196    -0.8662 H       
  39 H39           -3.7072     6.1938    -3.0817 H       
  40 H40           -1.6987     2.5056    -2.1865 H       
  41 H41           -0.8407     2.5025    -4.5170 H       
  42 H42           -2.0068     3.8217    -7.0772 H       
  43 H43           -1.1901     5.3739    -6.7738 H       
  44 H44           -0.3354     3.8432    -6.4655 H       
  45 H45           -6.8093     5.9053     0.9607 H       
  46 H46           -7.1779     4.1631     0.9604 H       
  47 H47           -7.4526     6.0674     3.3312 H       
  48 H48           -6.0741     4.5533     4.7035 H       
  49 H49           -5.8032     2.6532     2.3290 H       
  50 H50           -4.4684     3.3342     3.2910 H       
  51 H51           -6.8539     1.6270     4.3168 H       
  52 H52           -5.5044     2.2185     5.3154 H       
  53 H53           -7.1821     2.6046     5.7676 H       
  54 H54           -9.5156     4.5473     1.6716 H       
  55 H55           -9.8683     5.5595     3.0927 H       
  56 H56           -9.2236     6.3021     1.6090 H       
@<TRIPOS>BOND
   1    1    2 1
   2    1    8 2
   3    1    9 am
   4    2    3 ar
   5    2    7 ar
   6    3    4 ar
   7    3   32 1
   8    4    5 ar
   9    4   33 1
  10    5    6 ar
  11    5   31 1
  12    6    7 ar
  13    6   34 1
  14    7   35 1
  15    9   10 1
  16    9   36 1
  17   10   14 1
  18   10   37 1
  19   10   38 1
  20   11   12 1
  21   11   15 1
  22   12   13 2
  23   12   23 1
  24   13   14 1
  25   14   15 2
  26   15   17 1
  27   16   17 ar
  28   16   21 ar
  29   16   39 1
  30   17   18 ar
  31   18   19 ar
  32   18   40 1
  33   19   20 ar
  34   19   41 1
  35   20   21 ar
  36   20   22 1
  37   22   42 1
  38   22   43 1
  39   22   44 1
  40   23   24 1
  41   23   28 1
  42   24   25 1
  43   24   45 1
  44   24   46 1
  45   25   26 1
  46   25   30 1
  47   25   47 1
  48   26   27 1
  49   27   28 1
  50   27   29 1
  51   27   48 1
  52   28   49 1
  53   28   50 1
  54   29   51 1
  55   29   52 1
  56   29   53 1
  57   30   54 1
  58   30   55 1
  59   30   56 1

#	End of record

