#	Name: ASD03330230
#	Creating user name:	WinNT
#	Creation time:	15. 06. 2019 20:36

#	Modifying user name:	WinNT
#	Modification time:	15. 06. 2019 20:36

#	Program:	/corina/corina34_cracker 3.40 0067  02.08.2006

@<TRIPOS>MOLECULE
ASD03330230
  54   56    0    0    0
SMALL
NO_CHARGES


@<TRIPOS>ATOM
   1 C1            -0.6674     0.5742     0.2356 C.3     
   2 N2            -0.5952    -0.8810     0.0427 N.3     
   3 C3            -0.0234    -1.2155    -1.2741 C.3     
   4 C4             1.2515    -0.4296    -1.4415 C.2     
   5 N5             1.5882     0.6350    -0.6671 N.pl3   
   6 C6             0.7449     1.1448     0.4179 C.3     
   7 C7             2.2551    -0.6097    -2.3362 C.2     
   8 N8             3.1906     0.3383    -2.0998 N.2     
   9 C9             2.7948     1.0892    -1.0963 C.2     
  10 C10            3.5378     2.2365    -0.5298 C.ar    
  11 C11            4.5993     2.8010    -1.2367 C.ar    
  12 C12            2.3156    -1.6508    -3.3775 C.2     
  13 O13            1.4068    -2.4511    -3.4907 O.2     
  14 O14            5.7325    -2.2052    -5.3261 O.2     
  15 C15            4.8770    -3.0212    -5.5966 C.2     
  16 C16            3.4380    -2.7508    -5.2395 C.3     
  17 N17            3.3779    -1.7159    -4.2043 N.am    
  18 C18            2.6852    -2.2729    -6.4827 C.3     
  19 C19            2.7467    -3.3543    -7.5633 C.3     
  20 C20            1.2246    -1.9971    -6.1198 C.3     
  21 C21            3.3312    -0.9895    -7.0082 C.3     
  22 N22            5.2131    -4.1697    -6.2165 N.am    
  23 C23            6.5968    -4.3947    -6.6417 C.3     
  24 C24            5.2885     3.8722    -0.7025 C.ar    
  25 C25            4.9272     4.3846     0.5318 C.ar    
  26 C26            3.8750     3.8282     1.2369 C.ar    
  27 C27            3.1754     2.7617     0.7111 C.ar    
  28 Cl28           6.6102     4.5768    -1.5801 Cl      
  29 H29           -1.1337     1.0327    -0.6364 H       
  30 H30           -1.2638     0.7932     1.1213 H       
  31 H31           -0.0718    -1.3187     0.7860 H       
  32 H32            0.1928    -2.2828    -1.3215 H       
  33 H33           -0.7281    -0.9464    -2.0609 H       
  34 H34            0.7099     2.2334     0.3759 H       
  35 H35            1.1491     0.8260     1.3786 H       
  36 H36            4.8821     2.4012    -2.1993 H       
  37 H37            2.9784    -3.6658    -4.8657 H       
  38 H38            4.1027    -1.0776    -4.1139 H       
  39 H39            2.2724    -4.2638    -7.1946 H       
  40 H40            2.2238    -3.0075    -8.4546 H       
  41 H41            3.7878    -3.5621    -7.8106 H       
  42 H42            1.1808    -1.2267    -5.3500 H       
  43 H43            0.6883    -1.6566    -7.0055 H       
  44 H44            0.7643    -2.9115    -5.7454 H       
  45 H45            4.3718    -1.1860    -7.2668 H       
  46 H46            2.7949    -0.6490    -7.8940 H       
  47 H47            3.2874    -0.2191    -6.2384 H       
  48 H48            4.5388    -4.8474    -6.3810 H       
  49 H49            6.6756    -5.3707    -7.1207 H       
  50 H50            6.8906    -3.6185    -7.3482 H       
  51 H51            7.2539    -4.3625    -5.7726 H       
  52 H52            5.4693     5.2218     0.9461 H       
  53 H53            3.5981     4.2322     2.1995 H       
  54 H54            2.3542     2.3286     1.2629 H       
@<TRIPOS>BOND
   1    1    2 1
   2    1    6 1
   3    1   29 1
   4    1   30 1
   5    2    3 1
   6    2   31 1
   7    3    4 1
   8    3   32 1
   9    3   33 1
  10    4    5 1
  11    4    7 2
  12    5    6 1
  13    5    9 1
  14    6   34 1
  15    6   35 1
  16    7    8 1
  17    7   12 1
  18    8    9 2
  19    9   10 1
  20   10   11 ar
  21   10   27 ar
  22   11   24 ar
  23   11   36 1
  24   12   13 2
  25   12   17 am
  26   14   15 2
  27   15   22 am
  28   15   16 1
  29   16   17 1
  30   16   18 1
  31   16   37 1
  32   17   38 1
  33   18   19 1
  34   18   20 1
  35   18   21 1
  36   19   39 1
  37   19   40 1
  38   19   41 1
  39   20   42 1
  40   20   43 1
  41   20   44 1
  42   21   45 1
  43   21   46 1
  44   21   47 1
  45   22   23 1
  46   22   48 1
  47   23   49 1
  48   23   50 1
  49   23   51 1
  50   24   25 ar
  51   24   28 1
  52   25   26 ar
  53   25   52 1
  54   26   27 ar
  55   26   53 1
  56   27   54 1

#	End of record

