#	Name: ASD08178353
#	Creating user name:	WinNT
#	Creation time:	15. 06. 2019 21:18

#	Modifying user name:	WinNT
#	Modification time:	15. 06. 2019 21:18

#	Program:	/corina/corina34_cracker 3.40 0067  02.08.2006

@<TRIPOS>MOLECULE
ASD08178353
  96   99    0    0    0
SMALL
NO_CHARGES


@<TRIPOS>ATOM
   1 N1            -1.6440     1.3692     0.3077 N.am    
   2 C2            -1.4107    -0.0055     0.3256 C.ar    
   3 C3            -0.1121    -0.4934     0.4584 C.ar    
   4 N4            -2.4230    -0.8536     0.2219 N.ar    
   5 N5            -2.2508    -2.1254     0.2346 N.ar    
   6 C6            -1.0570    -2.6731     0.3514 C.ar    
   7 C7             0.0666    -1.8683     0.4711 C.ar    
   8 C8            -0.9139    -4.1733     0.3609 C.3     
   9 C9            -1.8018    -4.7633     1.4583 C.3     
  10 C10           -1.6566    -6.2864     1.4679 C.3     
  11 C11           -2.5444    -6.8765     2.5654 C.3     
  12 C12           -2.4013    -8.3766     2.5748 C.2     
  13 N13           -1.5397    -9.0575     3.2615 N.2     
  14 N14           -1.5797   -10.3128     3.1326 N.2     
  15 C15           -2.4729   -10.8083     2.3302 C.2     
  16 S16           -3.3822    -9.5212     1.6586 S.3     
  17 N17           -2.6633   -12.1602     2.0648 N.am    
  18 C18           -3.6284   -12.5494     1.2083 C.2     
  19 C19           -3.7627   -14.0031     0.8345 C.3     
  20 O20           -4.3888   -11.7297     0.7384 O.2     
  21 C21           -4.8263   -14.1538    -0.2224 C.ar    
  22 C22           -4.4867   -14.0800    -1.5601 C.ar    
  23 C23           -5.4626   -14.2183    -2.5297 C.ar    
  24 C24           -6.7777   -14.4307    -2.1612 C.ar    
  25 C25           -7.1172   -14.5055    -0.8231 C.ar    
  26 C26           -6.1410   -14.3716     0.1461 C.ar    
  27 C27           -2.8847     1.8391     0.0704 C.2     
  28 O28           -3.7786     1.0721    -0.2186 O.2     
  29 C29           -3.1612     3.3175     0.1642 C.3     
  30 C30           -4.6131     3.5776    -0.1445 C.ar    
  31 C31           -5.5478     3.5730     0.8739 C.ar    
  32 C32           -6.8797     3.8116     0.5908 C.ar    
  33 C33           -7.2767     4.0551    -0.7107 C.ar    
  34 C34           -6.3419     4.0605    -1.7290 C.ar    
  35 C35           -5.0094     3.8263    -1.4453 C.ar    
  36 C36           -5.0925   -14.1368    -3.9882 C.3     
  37 N37           -4.7577   -15.4747    -4.4826 N.am    
  38 C38           -4.3940   -15.6463    -5.7689 C.2     
  39 O39           -4.3437   -14.6914    -6.5187 O.2     
  40 O40           -4.0863   -16.8758    -6.2232 O.3     
  41 C41           -3.7032   -16.9859    -7.6194 C.3     
  42 C42           -2.4613   -16.1300    -7.8765 C.3     
  43 C43           -3.3927   -18.4473    -7.9493 C.3     
  44 C44           -4.8519   -16.4964    -8.5036 C.3     
  45 C45           -1.8147   -13.1612     2.7161 C.3     
  46 O46           -0.8620   -13.6873     1.7550 O.3     
  47 C47            0.2045   -12.9226     1.4730 C.2     
  48 C48            1.1725   -13.3463     0.3985 C.3     
  49 O49            0.3884   -11.8945     2.0806 O.2     
  50 C50            2.2886   -12.3066     0.2787 C.3     
  51 C51            3.2714   -12.7368    -0.8121 C.3     
  52 H52           -0.9141     1.9871     0.4700 H       
  53 H53            0.7287     0.1784     0.5482 H       
  54 H54            1.0519    -2.3000     0.5673 H       
  55 H55           -1.2176    -4.5733    -0.6065 H       
  56 H56            0.1258    -4.4379     0.5533 H       
  57 H57           -1.4981    -4.3633     2.4257 H       
  58 H58           -2.8416    -4.4987     1.2659 H       
  59 H59           -1.9602    -6.6865     0.5006 H       
  60 H60           -0.6168    -6.5510     1.6603 H       
  61 H61           -2.2407    -6.4764     3.5327 H       
  62 H62           -3.5842    -6.6119     2.3730 H       
  63 H63           -2.8114   -14.3680     0.4472 H       
  64 H64           -4.0417   -14.5806     1.7158 H       
  65 H65           -3.4591   -13.9140    -1.8480 H       
  66 H66           -7.5401   -14.5380    -2.9186 H       
  67 H67           -8.1449   -14.6711    -0.5352 H       
  68 H68           -6.4062   -14.4300     1.1914 H       
  69 H69           -2.9359     3.6661     1.1720 H       
  70 H70           -2.5363     3.8502    -0.5527 H       
  71 H71           -5.2376     3.3828     1.8908 H       
  72 H72           -7.6100     3.8073     1.3864 H       
  73 H73           -8.3174     4.2407    -0.9320 H       
  74 H74           -6.6522     4.2504    -2.7459 H       
  75 H75           -4.2790     3.8306    -2.2408 H       
  76 H76           -5.9347   -13.7402    -4.5552 H       
  77 H77           -4.2316   -13.4791    -4.1085 H       
  78 H78           -4.7979   -16.2370    -3.8841 H       
  79 H79           -1.6430   -16.4787    -7.2466 H       
  80 H80           -2.1737   -16.2127    -8.9246 H       
  81 H81           -2.6826   -15.0889    -7.6415 H       
  82 H82           -4.2774   -19.0570    -7.7662 H       
  83 H83           -3.1051   -18.5299    -8.9974 H       
  84 H84           -2.5743   -18.7960    -7.3194 H       
  85 H85           -5.0732   -15.4553    -8.2686 H       
  86 H86           -4.5643   -16.5791    -9.5517 H       
  87 H87           -5.7367   -17.1062    -8.3204 H       
  88 H88           -1.2777   -12.6987     3.5443 H       
  89 H89           -2.4357   -13.9733     3.0941 H       
  90 H90            1.6032   -14.3133     0.6583 H       
  91 H91            0.6469   -13.4264    -0.5530 H       
  92 H92            1.8579   -11.3396     0.0190 H       
  93 H93            2.8142   -12.2265     1.2303 H       
  94 H94            4.0665   -11.9961    -0.8975 H       
  95 H95            3.7021   -13.7038    -0.5524 H       
  96 H96            2.7458   -12.8169    -1.7637 H       
@<TRIPOS>BOND
   1    1    2 1
   2    1   27 am
   3    1   52 1
   4    2    3 ar
   5    2    4 ar
   6    3    7 ar
   7    3   53 1
   8    4    5 ar
   9    5    6 ar
  10    6    7 ar
  11    6    8 1
  12    7   54 1
  13    8    9 1
  14    8   55 1
  15    8   56 1
  16    9   10 1
  17    9   57 1
  18    9   58 1
  19   10   11 1
  20   10   59 1
  21   10   60 1
  22   11   12 1
  23   11   61 1
  24   11   62 1
  25   12   13 2
  26   12   16 1
  27   13   14 1
  28   14   15 2
  29   15   16 1
  30   15   17 1
  31   17   18 am
  32   17   45 1
  33   18   19 1
  34   18   20 2
  35   19   21 1
  36   19   63 1
  37   19   64 1
  38   21   22 ar
  39   21   26 ar
  40   22   23 ar
  41   22   65 1
  42   23   24 ar
  43   23   36 1
  44   24   25 ar
  45   24   66 1
  46   25   26 ar
  47   25   67 1
  48   26   68 1
  49   27   28 2
  50   27   29 1
  51   29   30 1
  52   29   69 1
  53   29   70 1
  54   30   31 ar
  55   30   35 ar
  56   31   32 ar
  57   31   71 1
  58   32   33 ar
  59   32   72 1
  60   33   34 ar
  61   33   73 1
  62   34   35 ar
  63   34   74 1
  64   35   75 1
  65   36   37 1
  66   36   76 1
  67   36   77 1
  68   37   38 am
  69   37   78 1
  70   38   39 2
  71   38   40 1
  72   40   41 1
  73   41   42 1
  74   41   43 1
  75   41   44 1
  76   42   79 1
  77   42   80 1
  78   42   81 1
  79   43   82 1
  80   43   83 1
  81   43   84 1
  82   44   85 1
  83   44   86 1
  84   44   87 1
  85   45   46 1
  86   45   88 1
  87   45   89 1
  88   46   47 1
  89   47   48 1
  90   47   49 2
  91   48   50 1
  92   48   90 1
  93   48   91 1
  94   50   51 1
  95   50   92 1
  96   50   93 1
  97   51   94 1
  98   51   95 1
  99   51   96 1

#	End of record

