#	Name: ASD01900976
#	Creating user name:	WinNT
#	Creation time:	15. 06. 2019 19:52

#	Modifying user name:	WinNT
#	Modification time:	15. 06. 2019 19:52

#	Program:	/corina/corina34_cracker 3.40 0067  02.08.2006

@<TRIPOS>MOLECULE
ASD01900976
  73   78    0    0    0
SMALL
NO_CHARGES


@<TRIPOS>ATOM
   1 C1             0.1393     0.8498    -0.2568 C.ar    
   2 C2             0.3182    -0.5042    -0.2930 C.ar    
   3 C3             1.5977    -1.0476    -0.4023 C.ar    
   4 C4             2.7106    -0.2169    -0.4686 C.ar    
   5 C5             2.5407     1.1532    -0.4267 C.ar    
   6 C6             1.2450     1.6971    -0.3309 C.ar    
   7 N7             3.6218     2.0267    -0.4688 N.pl3   
   8 C8             3.4272     3.3669    -1.0342 C.3     
   9 N9             2.1669     3.9394    -0.5602 N.am    
  10 C10            1.0983     3.1599    -0.3024 C.2     
  11 C11            2.0693     5.3236    -0.3708 C.ar    
  12 C12            2.6229     5.9108     0.7592 C.ar    
  13 C13            2.5263     7.2757     0.9453 C.ar    
  14 C14            1.8759     8.0600     0.0040 C.ar    
  15 C15            1.3226     7.4741    -1.1252 C.ar    
  16 C16            1.4239     6.1102    -1.3157 C.ar    
  17 O17            0.0201     3.6628    -0.0480 O.2     
  18 O18            1.7803     9.4038     0.1883 O.3     
  19 C19            4.5891     4.2684    -0.6055 C.3     
  20 C20            3.4033     3.2733    -2.5622 C.3     
  21 C21            3.2724     4.6791    -3.1524 C.3     
  22 N22            4.4049     5.5041    -2.7123 N.3     
  23 C23            4.4226     5.6460    -1.2510 C.3     
  24 C24            4.3852     6.8182    -3.3686 C.3     
  25 C25            5.4955     7.6732    -2.8143 C.ar    
  26 C26            6.7755     7.5586    -3.3242 C.ar    
  27 C27            7.7955     8.3417    -2.8175 C.ar    
  28 C28            7.5361     9.2417    -1.7985 C.ar    
  29 C29            6.2525     9.3566    -1.2872 C.ar    
  30 C30            5.2320     8.5751    -1.8007 C.ar    
  31 C31            1.0972    10.1501    -0.8209 C.3     
  32 F32            5.9968    10.2345    -0.2926 F       
  33 N33            1.7615    -2.4281    -0.4447 N.3     
  34 C34            0.4661    -3.1146    -0.3610 C.3     
  35 C35            0.6708    -4.6186    -0.5564 C.3     
  36 C36            1.6190    -5.1445     0.5247 C.3     
  37 C37            2.9433    -4.3797     0.4469 C.3     
  38 C38            2.6728    -2.8827     0.6133 C.3     
  39 F39            8.5326    10.0072    -1.3024 F       
  40 H40           -0.8553     1.2629    -0.1756 H       
  41 H41           -0.5387    -1.1592    -0.2362 H       
  42 H42            3.7009    -0.6398    -0.5519 H       
  43 H43            4.4892     1.7551    -0.1302 H       
  44 H44            3.1287     5.3002     1.4926 H       
  45 H45            2.9568     7.7325     1.8241 H       
  46 H46            0.8161     8.0854    -1.8575 H       
  47 H47            0.9970     5.6547    -2.1970 H       
  48 H48            4.5881     4.3722     0.4796 H       
  49 H49            5.5315     3.8262    -0.9288 H       
  50 H50            4.3283     2.8159    -2.9133 H       
  51 H51            2.5543     2.6662    -2.8763 H       
  52 H52            3.2694     4.6172    -4.2406 H       
  53 H53            2.3404     5.1304    -2.8120 H       
  54 H54            3.4856     6.0922    -0.9181 H       
  55 H55            5.2542     6.2870    -0.9584 H       
  56 H56            4.5262     6.6905    -4.4419 H       
  57 H57            3.4265     7.3026    -3.1832 H       
  58 H58            6.9787     6.8562    -4.1191 H       
  59 H59            8.7950     8.2510    -3.2164 H       
  60 H60            4.2307     8.6670    -1.4065 H       
  61 H61            1.0928    11.2063    -0.5513 H       
  62 H62            1.6067    10.0210    -1.7757 H       
  63 H63            0.0711     9.7924    -0.9053 H       
  64 H64            0.0213    -2.9327     0.6174 H       
  65 H65           -0.1973    -2.7344    -1.1377 H       
  66 H66           -0.2889    -5.1296    -0.4786 H       
  67 H67            1.1028    -4.8023    -1.5401 H       
  68 H68            1.1699    -4.9961     1.5067 H       
  69 H69            1.8019    -6.2069     0.3635 H       
  70 H70            3.6073    -4.7201     1.2415 H       
  71 H71            3.4111    -4.5597    -0.5210 H       
  72 H72            3.6121    -2.3340     0.5441 H       
  73 H73            2.2176    -2.7019     1.5870 H       
@<TRIPOS>BOND
   1    1    2 ar
   2    1    6 ar
   3    1   40 1
   4    2    3 ar
   5    2   41 1
   6    3    4 ar
   7    3   33 1
   8    4    5 ar
   9    4   42 1
  10    5    7 1
  11    5    6 ar
  12    6   10 1
  13    7    8 1
  14    7   43 1
  15    8    9 1
  16    8   20 1
  17    8   19 1
  18    9   10 am
  19    9   11 1
  20   10   17 2
  21   11   12 ar
  22   11   16 ar
  23   12   13 ar
  24   12   44 1
  25   13   14 ar
  26   13   45 1
  27   14   15 ar
  28   14   18 1
  29   15   16 ar
  30   15   46 1
  31   16   47 1
  32   18   31 1
  33   19   23 1
  34   19   48 1
  35   19   49 1
  36   20   21 1
  37   20   50 1
  38   20   51 1
  39   21   22 1
  40   21   52 1
  41   21   53 1
  42   22   23 1
  43   22   24 1
  44   23   54 1
  45   23   55 1
  46   24   25 1
  47   24   56 1
  48   24   57 1
  49   25   26 ar
  50   25   30 ar
  51   26   27 ar
  52   26   58 1
  53   27   28 ar
  54   27   59 1
  55   28   29 ar
  56   28   39 1
  57   29   30 ar
  58   29   32 1
  59   30   60 1
  60   31   61 1
  61   31   62 1
  62   31   63 1
  63   33   34 1
  64   33   38 1
  65   34   35 1
  66   34   64 1
  67   34   65 1
  68   35   36 1
  69   35   66 1
  70   35   67 1
  71   36   37 1
  72   36   68 1
  73   36   69 1
  74   37   38 1
  75   37   70 1
  76   37   71 1
  77   38   72 1
  78   38   73 1

#	End of record

