#	Name: ASD01841035
#	Creating user name:	WinNT
#	Creation time:	15. 06. 2019 19:38

#	Modifying user name:	WinNT
#	Modification time:	15. 06. 2019 19:38

#	Program:	/corina/corina34_cracker 3.40 0067  02.08.2006

@<TRIPOS>MOLECULE
ASD01841035
  38   40    0    0    0
SMALL
NO_CHARGES


@<TRIPOS>ATOM
   1 C1            -0.0178     1.4588     0.0101 C.2     
   2 C2             0.0021    -0.0041     0.0020 C.2     
   3 O3             1.0281     2.0818     0.0034 O.2     
   4 N4            -1.1940     2.1167     0.0192 N.am    
   5 S5            -2.6695     4.4854     0.0391 S.3     
   6 C6            -1.2128     3.5013     0.0268 C.2     
   7 N7            -0.1658     4.2508     0.0267 N.2     
   8 C8            -0.3465     5.5870     0.0354 C.ar    
   9 C9            -1.6944     5.9531     0.0435 C.ar    
  10 C10           -2.0608     7.2979     0.0527 C.ar    
  11 C11           -1.0963     8.2807     0.0535 C.ar    
  12 C12            0.2467     7.9350     0.0455 C.ar    
  13 C13            0.6285     6.6123     0.0373 C.ar    
  14 C14           -3.5190     7.6781     0.0614 C.3     
  15 O15            1.9490     6.2897     0.0295 O.3     
  16 C16            2.8814     7.3726     0.0319 C.3     
  17 O17           -1.1773    -0.6854     0.0096 O.3     
  18 C18           -1.1217    -2.0664    -0.3688 C.3     
  19 C19            0.0750    -2.7074     0.3487 C.3     
  20 O20            1.2562    -1.9904    -0.0289 O.3     
  21 C21            1.1804    -0.6427    -0.0182 C.2     
  22 C22            2.4530     0.1644    -0.0184 C.3     
  23 H23           -2.0274     1.6204     0.0205 H       
  24 H24           -1.3858     9.3212     0.0599 H       
  25 H25            0.9992     8.7097     0.0462 H       
  26 H26           -3.8660     7.7640     1.0911 H       
  27 H27           -3.6484     8.6338    -0.4465 H       
  28 H28           -4.0974     6.9115    -0.4541 H       
  29 H29            3.8973     6.9774     0.0251 H       
  30 H30            2.7252     7.9885    -0.8538 H       
  31 H31            2.7330     7.9779     0.9262 H       
  32 H32           -2.0422    -2.5677    -0.0697 H       
  33 H33           -0.9910    -2.1477    -1.4478 H       
  34 H34           -0.0653    -2.6435     1.4277 H       
  35 H35            0.1670    -3.7517     0.0501 H       
  36 H36            3.3102    -0.5088    -0.0279 H       
  37 H37            2.4802     0.7997    -0.9037 H       
  38 H38            2.4891     0.7861     0.8762 H       
@<TRIPOS>BOND
   1    1    2 1
   2    1    3 2
   3    1    4 am
   4    2   17 1
   5    2   21 2
   6    4    6 1
   7    4   23 1
   8    5    6 1
   9    5    9 1
  10    6    7 2
  11    7    8 1
  12    8    9 ar
  13    8   13 ar
  14    9   10 ar
  15   10   11 ar
  16   10   14 1
  17   11   12 ar
  18   11   24 1
  19   12   13 ar
  20   12   25 1
  21   13   15 1
  22   14   26 1
  23   14   27 1
  24   14   28 1
  25   15   16 1
  26   16   29 1
  27   16   30 1
  28   16   31 1
  29   17   18 1
  30   18   19 1
  31   18   32 1
  32   18   33 1
  33   19   20 1
  34   19   34 1
  35   19   35 1
  36   20   21 1
  37   21   22 1
  38   22   36 1
  39   22   37 1
  40   22   38 1

#	End of record

