#	Name: ASD02030206
#	Creating user name:	WinNT
#	Creation time:	15. 06. 2019 20:14

#	Modifying user name:	WinNT
#	Modification time:	15. 06. 2019 20:14

#	Program:	/corina/corina34_cracker 3.40 0067  02.08.2006

@<TRIPOS>MOLECULE
ASD02030206
  64   69    0    0    0
SMALL
NO_CHARGES


@<TRIPOS>ATOM
   1 N1             0.0224     1.5600    -0.8399 N.am    
   2 C2             0.0805     0.0953    -0.7341 C.3     
   3 C3            -0.6618    -0.3340     0.5375 C.3     
   4 N4            -1.9746     0.3263     0.5604 N.am    
   5 C5            -2.0327     1.7909     0.4546 C.3     
   6 C6            -1.2901     2.2206    -0.8114 C.3     
   7 C7             1.1528     2.2847    -0.9555 C.2     
   8 C8             2.4699     1.6243    -0.8348 C.2     
   9 N9             3.6377     2.2288    -0.7943 N.2     
  10 N10            2.6852     0.2993    -0.7410 N.2     
  11 C11            3.9785     0.1208    -0.6505 C.2     
  12 N12            4.5612     1.3368    -0.6851 N.pl3   
  13 O13            1.0894     3.4815    -1.1590 O.2     
  14 C14           -3.1050    -0.3985     0.6760 C.2     
  15 C15           -3.0388    -1.8764     0.6817 C.ar    
  16 O16           -4.1789     0.1621     0.7756 O.2     
  17 C17           -1.1023     3.7391    -0.8061 C.3     
  18 C18           -2.0936     1.8034    -2.0447 C.3     
  19 N19           -1.9150    -2.4784     1.0795 N.ar    
  20 C20           -1.7837    -3.7802     1.1108 C.ar    
  21 C21           -2.8495    -4.6095     0.7156 C.ar    
  22 C22           -4.0618    -4.0083     0.2859 C.ar    
  23 C23           -4.1448    -2.6052     0.2799 C.ar    
  24 C24           -0.4862    -4.3932     1.5711 C.3     
  25 C25            0.7779    -4.0470     0.7818 C.3     
  26 C26            0.5616    -3.4571     2.1768 C.3     
  27 C27           -2.7461    -6.0080     0.7346 C.ar    
  28 C28           -3.8080    -6.7663     0.3414 C.ar    
  29 C29           -4.9972    -6.1756    -0.0800 C.ar    
  30 C30           -5.1345    -4.8202    -0.1113 C.ar    
  31 C31            5.9382     1.5876    -0.6148 C.ar    
  32 C32            6.4109     2.8923    -0.6613 C.ar    
  33 C33            7.7686     3.1363    -0.5918 C.ar    
  34 C34            8.6568     2.0828    -0.4764 C.ar    
  35 C35            8.1891     0.7823    -0.4298 C.ar    
  36 C36            6.8322     0.5323    -0.4927 C.ar    
  37 H37           -0.3964    -0.3537    -1.6053 H       
  38 H38            1.1204    -0.2264    -0.6768 H       
  39 H39           -0.7963    -1.4157     0.5350 H       
  40 H40           -0.0873    -0.0363     1.4146 H       
  41 H41           -3.0726     2.1126     0.3973 H       
  42 H42           -1.5558     2.2399     1.3258 H       
  43 H43            4.4868    -0.8279    -0.5611 H       
  44 H44           -0.3010     4.0037    -0.1162 H       
  45 H45           -0.8438     4.0767    -1.8098 H       
  46 H46           -2.0282     4.2186    -0.4887 H       
  47 H47           -3.0727     2.2817    -2.0193 H       
  48 H48           -1.5624     2.1107    -2.9455 H       
  49 H49           -2.2182     0.7205    -2.0480 H       
  50 H50           -5.0482    -2.1069    -0.0395 H       
  51 H51           -0.5619    -5.3990     1.9843 H       
  52 H52            1.5341    -4.8249     0.6760 H       
  53 H53            0.6711    -3.3759    -0.0705 H       
  54 H54            0.3125    -2.3980     2.2424 H       
  55 H55            1.1754    -3.8470     2.9888 H       
  56 H56           -1.8307    -6.4809     1.0584 H       
  57 H57           -3.7261    -7.8431     0.3564 H       
  58 H58           -5.8225    -6.8011    -0.3865 H       
  59 H59           -6.0618    -4.3745    -0.4398 H       
  60 H60            5.7177     3.7155    -0.7521 H       
  61 H61            8.1369     4.1509    -0.6279 H       
  62 H62            9.7180     2.2761    -0.4229 H       
  63 H63            8.8853    -0.0384    -0.3397 H       
  64 H64            6.4675    -0.4836    -0.4559 H       
@<TRIPOS>BOND
   1    1    2 1
   2    1    7 am
   3    1    6 1
   4    2    3 1
   5    2   37 1
   6    2   38 1
   7    3    4 1
   8    3   39 1
   9    3   40 1
  10    4    5 1
  11    4   14 am
  12    5    6 1
  13    5   41 1
  14    5   42 1
  15    6   17 1
  16    6   18 1
  17    7    8 1
  18    7   13 2
  19    8    9 2
  20    8   10 1
  21    9   12 1
  22   10   11 2
  23   11   12 1
  24   11   43 1
  25   12   31 1
  26   14   15 1
  27   14   16 2
  28   15   19 ar
  29   15   23 ar
  30   17   44 1
  31   17   45 1
  32   17   46 1
  33   18   47 1
  34   18   48 1
  35   18   49 1
  36   19   20 ar
  37   20   21 ar
  38   20   24 1
  39   21   22 ar
  40   21   27 ar
  41   22   23 ar
  42   22   30 ar
  43   23   50 1
  44   24   25 1
  45   24   26 1
  46   24   51 1
  47   25   26 1
  48   25   52 1
  49   25   53 1
  50   26   54 1
  51   26   55 1
  52   27   28 ar
  53   27   56 1
  54   28   29 ar
  55   28   57 1
  56   29   30 ar
  57   29   58 1
  58   30   59 1
  59   31   32 ar
  60   31   36 ar
  61   32   33 ar
  62   32   60 1
  63   33   34 ar
  64   33   61 1
  65   34   35 ar
  66   34   62 1
  67   35   36 ar
  68   35   63 1
  69   36   64 1

#	End of record

