#	Name: ASD04910138
#	Creating user name:	WinNT
#	Creation time:	15. 06. 2019 20:55

#	Modifying user name:	WinNT
#	Modification time:	15. 06. 2019 20:55

#	Program:	/corina/corina34_cracker 3.40 0067  02.08.2006

@<TRIPOS>MOLECULE
ASD04910138
  55   57    0    0    0
SMALL
NO_CHARGES


@<TRIPOS>ATOM
   1 C1            -0.2693     1.4347     0.2402 C.2     
   2 C2            -0.2089    -0.0706     0.2041 C.3     
   3 C3             1.2520    -0.5211     0.1424 C.3     
   4 O4             0.7514     2.0810     0.2187 O.2     
   5 O5            -1.4571     2.0578     0.2905 O.3     
   6 C6             2.5032    -2.6100     0.0512 C.2     
   7 C7             2.5624    -4.0868     0.0158 C.ar    
   8 C8             3.7958    -4.7377    -0.0423 C.ar    
   9 C9             3.8440    -6.1160    -0.0746 C.ar    
  10 C10            2.6733    -6.8530    -0.0499 C.ar    
  11 C11            1.4475    -6.2141     0.0077 C.ar    
  12 C12            1.3854    -4.8364     0.0463 C.ar    
  13 O13            3.5300    -1.9599     0.0296 O.2     
  14 N14            1.3107    -1.9845     0.1074 N.am    
  15 C15            2.7337    -8.3584    -0.0865 C.3     
  16 C16            2.5543    -8.9105     1.3291 C.3     
  17 C17            2.7396   -10.4291     1.3115 C.3     
  18 C18            2.5602   -10.9812     2.7271 C.3     
  19 O19            1.6915    -8.8566    -0.9276 O.3     
  20 C20            1.9543    -9.9902    -1.6303 C.ar    
  21 C21            3.2167   -10.5632    -1.5753 C.ar    
  22 C22            3.4843   -11.7143    -2.2892 C.ar    
  23 C23            2.4898   -12.2987    -3.0617 C.ar    
  24 C24            1.2266   -11.7253    -3.1161 C.ar    
  25 C25            0.9585   -10.5770    -2.3977 C.ar    
  26 N26            2.7613   -13.4681    -3.7876 N.pl3   
  27 N27            3.9839   -14.1511    -3.8252 N.2     
  28 C28            3.8487   -15.1918    -4.6074 C.2     
  29 C29            2.5372   -15.2090    -5.0954 C.2     
  30 C30            1.8841   -14.1433    -4.5747 C.2     
  31 Cl31           1.8646   -16.3915    -6.1738 Cl      
  32 H32           -0.6761    -0.4746     1.1022 H       
  33 H33           -0.7388    -0.4345    -0.6762 H       
  34 H34            1.7192    -0.1171    -0.7557 H       
  35 H35            1.7819    -0.1572     1.0227 H       
  36 H36           -1.4453     3.0245     0.3121 H       
  37 H37            4.7103    -4.1635    -0.0624 H       
  38 H38            4.7977    -6.6209    -0.1196 H       
  39 H39            0.5373    -6.7952     0.0267 H       
  40 H40            0.4281    -4.3390     0.0958 H       
  41 H41            0.4912    -2.5033     0.1246 H       
  42 H42            3.7001    -8.6738    -0.4798 H       
  43 H43            3.2953    -8.4617     1.9907 H       
  44 H44            1.5537    -8.6706     1.6886 H       
  45 H45            1.9986   -10.8779     0.6499 H       
  46 H46            3.7402   -10.6690     0.9521 H       
  47 H47            3.3012   -10.5325     3.3887 H       
  48 H48            1.5595   -10.7414     3.0866 H       
  49 H49            2.6922   -12.0631     2.7146 H       
  50 H50            3.9903   -10.1085    -0.9743 H       
  51 H51            4.4672   -12.1598    -2.2468 H       
  52 H52            0.4527   -12.1793    -3.7172 H       
  53 H53           -0.0253   -10.1331    -2.4367 H       
  54 H54            4.6181   -15.9139    -4.8374 H       
  55 H55            0.8528   -13.8772    -4.7542 H       
@<TRIPOS>BOND
   1    1    2 1
   2    1    4 2
   3    1    5 1
   4    2    3 1
   5    2   32 1
   6    2   33 1
   7    3   14 1
   8    3   34 1
   9    3   35 1
  10    5   36 1
  11    6    7 1
  12    6   13 2
  13    6   14 am
  14    7    8 ar
  15    7   12 ar
  16    8    9 ar
  17    8   37 1
  18    9   10 ar
  19    9   38 1
  20   10   11 ar
  21   10   15 1
  22   11   12 ar
  23   11   39 1
  24   12   40 1
  25   14   41 1
  26   15   16 1
  27   15   19 1
  28   15   42 1
  29   16   17 1
  30   16   43 1
  31   16   44 1
  32   17   18 1
  33   17   45 1
  34   17   46 1
  35   18   47 1
  36   18   48 1
  37   18   49 1
  38   19   20 1
  39   20   21 ar
  40   20   25 ar
  41   21   22 ar
  42   21   50 1
  43   22   23 ar
  44   22   51 1
  45   23   24 ar
  46   23   26 1
  47   24   25 ar
  48   24   52 1
  49   25   53 1
  50   26   27 1
  51   26   30 1
  52   27   28 2
  53   28   29 1
  54   28   54 1
  55   29   30 2
  56   29   31 1
  57   30   55 1

#	End of record

