#	Name: ASD08170138
#	Creating user name:	WinNT
#	Creation time:	15. 06. 2019 21:17

#	Modifying user name:	WinNT
#	Modification time:	15. 06. 2019 21:17

#	Program:	/corina/corina34_cracker 3.40 0067  02.08.2006

@<TRIPOS>MOLECULE
ASD08170138
  65   68    0    0    0
SMALL
NO_CHARGES


@<TRIPOS>ATOM
   1 C1            -0.0184     1.5028     0.0103 C.3     
   2 C2             3.1542     4.2782    -0.0051 C.3     
   3 C3             3.3060     5.8007     0.0016 C.3     
   4 C4             4.7695     6.1596    -0.0104 C.2     
   5 C5             0.0021    -0.0041     0.0020 C.2     
   6 S6             5.7936     6.3998     1.4057 S.3     
   7 C7             7.1163     6.7314     0.3688 C.2     
   8 N8             6.7127     6.6418    -0.8625 N.2     
   9 N9             5.5028     6.3417    -1.0624 N.2     
  10 S10            0.0026    -1.0367    -1.4281 S.3     
  11 N11            0.0281    -0.7735     1.0436 N.2     
  12 N12            0.0423    -2.0172     0.8270 N.2     
  13 C13            0.0316    -2.4140    -0.4097 C.2     
  14 N14            0.0439    -3.7376    -0.8365 N.am    
  15 C15            0.0694    -4.7369     0.0675 C.2     
  16 O16            0.0817    -4.4819     1.2531 O.2     
  17 N17            8.4080     7.0451     0.7777 N.am    
  18 C18            9.3654     7.2864    -0.1397 C.2     
  19 C19           10.7651     7.6263     0.3033 C.3     
  20 O20            9.1005     7.2299    -1.3219 O.2     
  21 C21            0.0826    -6.1711    -0.3950 C.3     
  22 C22            0.1109    -7.0850     0.8030 C.ar    
  23 C23            1.4170     2.0324    -0.0006 C.3     
  24 S24            1.3924     3.8462     0.0094 S.3     
  25 C25           -1.0730    -7.5203     1.3684 C.ar    
  26 C26           11.6352     7.8482    -0.9069 C.ar    
  27 C27           11.7493     9.1127    -1.4537 C.ar    
  28 C28           12.5473     9.3163    -2.5639 C.ar    
  29 C29           13.2317     8.2554    -3.1271 C.ar    
  30 C30           13.1183     6.9911    -2.5798 C.ar    
  31 C31           12.3237     6.7884    -1.4670 C.ar    
  32 C32            1.3208    -7.4924     1.3331 C.ar    
  33 C33            1.3468    -8.3307     2.4320 C.ar    
  34 C34            0.1628    -8.7611     3.0011 C.ar    
  35 C35           -1.0471    -8.3585     2.4673 C.ar    
  36 C36            0.1911    -9.6753     4.1988 C.3     
  37 F37            0.2034    -8.9096     5.3696 F       
  38 F38           -0.9439   -10.4930     4.1882 F       
  39 F39            1.3402   -10.4718     4.1504 F       
  40 C40           14.1009     8.4772    -4.3380 C.3     
  41 F41           15.4004     8.7937    -3.9276 F       
  42 F42           14.1272     7.3126    -5.1127 F       
  43 F43           13.5821     9.5311    -5.0978 F       
  44 H44           -0.5455     1.8639    -0.8728 H       
  45 H45           -0.5286     1.8543     0.9071 H       
  46 H46            3.6209     3.8705    -0.9018 H       
  47 H47            3.6379     3.8610     0.8781 H       
  48 H48            2.8222     6.2179    -0.8815 H       
  49 H49            2.8392     6.2084     0.8983 H       
  50 H50            0.0340    -3.9415    -1.7848 H       
  51 H51            8.6200     7.0903     1.7232 H       
  52 H52           10.7448     8.5333     0.9075 H       
  53 H53           11.1685     6.8045     0.8951 H       
  54 H54           -0.8126    -6.3714    -0.9836 H       
  55 H55            0.9670    -6.3473    -1.0073 H       
  56 H56            1.9442     1.6713     0.8825 H       
  57 H57            1.9272     1.6808    -0.8974 H       
  58 H58           -2.0183    -7.2052     0.9517 H       
  59 H59           11.2146     9.9415    -1.0137 H       
  60 H60           12.6359    10.3041    -2.9915 H       
  61 H61           13.6527     6.1622    -3.0200 H       
  62 H62           12.2351     5.8006    -1.0394 H       
  63 H63            2.2458    -7.1562     0.8884 H       
  64 H64            2.2921    -8.6496     2.8456 H       
  65 H65           -1.9721    -8.6947     2.9119 H       
@<TRIPOS>BOND
   1    1    5 1
   2    1   23 1
   3    1   44 1
   4    1   45 1
   5    2    3 1
   6    2   24 1
   7    2   46 1
   8    2   47 1
   9    3    4 1
  10    3   48 1
  11    3   49 1
  12    4    6 1
  13    4    9 2
  14    5   10 1
  15    5   11 2
  16    6    7 1
  17    7    8 2
  18    7   17 1
  19    8    9 1
  20   10   13 1
  21   11   12 1
  22   12   13 2
  23   13   14 1
  24   14   15 am
  25   14   50 1
  26   15   16 2
  27   15   21 1
  28   17   18 am
  29   17   51 1
  30   18   19 1
  31   18   20 2
  32   19   26 1
  33   19   52 1
  34   19   53 1
  35   21   22 1
  36   21   54 1
  37   21   55 1
  38   22   25 ar
  39   22   32 ar
  40   23   24 1
  41   23   56 1
  42   23   57 1
  43   25   35 ar
  44   25   58 1
  45   26   27 ar
  46   26   31 ar
  47   27   28 ar
  48   27   59 1
  49   28   29 ar
  50   28   60 1
  51   29   30 ar
  52   29   40 1
  53   30   31 ar
  54   30   61 1
  55   31   62 1
  56   32   33 ar
  57   32   63 1
  58   33   34 ar
  59   33   64 1
  60   34   35 ar
  61   34   36 1
  62   35   65 1
  63   36   37 1
  64   36   38 1
  65   36   39 1
  66   40   41 1
  67   40   42 1
  68   40   43 1

#	End of record

