#	Name: ASD00431042
#	Creating user name:	WinNT
#	Creation time:	15. 06. 2019 18:35

#	Modifying user name:	WinNT
#	Modification time:	15. 06. 2019 18:35

#	Program:	/corina/corina34_cracker 3.40 0067  02.08.2006

@<TRIPOS>MOLECULE
ASD00431042
  71   75    0    0    0
SMALL
NO_CHARGES


@<TRIPOS>ATOM
   1 C1            -1.1208     1.1360     0.8358 C.2     
   2 C2            -1.4146    -0.3580     0.7644 C.3     
   3 C3            -2.8299    -0.4199     1.3739 C.3     
   4 C4            -3.3492     0.9925     1.1794 C.2     
   5 N5            -2.3472     1.7759     0.7335 N.am    
   6 C6            -3.7008    -1.4252     0.6178 C.3     
   7 O7            -4.4860     1.3585     1.3913 O.2     
   8 C8            -5.0201    -1.5819     1.3291 C.2     
   9 N9            -5.9535    -2.4224     0.8405 N.am    
  10 O10           -5.2419    -0.9515     2.3412 O.2     
  11 C11           -2.5300     3.1312     0.2081 C.3     
  12 C12           -2.9018     3.0585    -1.2505 C.ar    
  13 C13           -4.2272     3.1547    -1.6315 C.ar    
  14 C14           -1.9161     2.9013    -2.2084 C.ar    
  15 C15           -2.2575     2.8347    -3.5474 C.ar    
  16 C16           -3.5843     2.9252    -3.9276 C.ar    
  17 C17           -4.5689     3.0881    -2.9689 C.ar    
  18 Cl18          -0.2511     2.7883    -1.7303 Cl      
  19 Cl19          -4.0136     2.8422    -5.6076 Cl      
  20 C20           -7.2445    -2.5852     1.5237 C.3     
  21 C21           -5.7009    -3.1880    -0.3882 C.3     
  22 C22           -6.8287    -2.8987    -1.3865 C.3     
  23 N23           -8.1175    -3.0657    -0.7003 N.am    
  24 C24           -8.3691    -2.2972     0.5214 C.3     
  25 C25           -9.0513    -3.9056    -1.1894 C.2     
  26 O26          -10.1459    -3.9723    -0.6618 O.2     
  27 C27           -8.7482    -4.7392    -2.3573 C.2     
  28 C28           -9.5472    -5.7190    -2.8728 C.2     
  29 C29           -8.8689    -6.2520    -3.9801 C.2     
  30 C30           -7.7003    -5.5825    -4.0905 C.2     
  31 O31           -7.6336    -4.6682    -3.1142 O.3     
  32 C32            0.0693     1.6430     1.0341 C.2     
  33 C33            1.2823     0.7941     1.2572 C.3     
  34 C34            1.0028    -0.6963     1.1830 C.3     
  35 C35           -0.3896    -1.0479     1.6689 C.3     
  36 C36           -1.3753    -0.8863    -0.6464 C.2     
  37 O37           -1.2425    -0.1232    -1.5737 O.2     
  38 O38           -1.4878    -2.2046    -0.8728 O.3     
  39 C39           -1.5843    -4.1643    -2.3152 C.3     
  40 C40           -1.4414    -2.6421    -2.2565 C.3     
  41 H41           -2.7823    -0.6704     2.4337 H       
  42 H42           -3.8752    -1.0646    -0.3960 H       
  43 H43           -3.1927    -2.3887     0.5783 H       
  44 H44           -3.3251     3.6311     0.7613 H       
  45 H45           -1.6020     3.6921     0.3191 H       
  46 H46           -4.9960     3.2814    -0.8836 H       
  47 H47           -1.4884     2.7123    -4.2956 H       
  48 H48           -5.6049     3.1589    -3.2656 H       
  49 H49           -7.3366    -3.6065     1.8933 H       
  50 H50           -7.3085    -1.8850     2.3565 H       
  51 H51           -4.7457    -2.8858    -0.8177 H       
  52 H52           -5.6805    -4.2532    -0.1579 H       
  53 H53           -6.7393    -1.8761    -1.7532 H       
  54 H54           -6.7659    -3.5963    -2.2217 H       
  55 H55           -9.3235    -2.5984     0.9531 H       
  56 H56           -8.3907    -1.2330     0.2862 H       
  57 H57          -10.5138    -6.0250    -2.5005 H       
  58 H58           -9.2157    -7.0475    -4.6229 H       
  59 H59           -6.9460    -5.7541    -4.8442 H       
  60 H60            0.1810     2.7172     1.0367 H       
  61 H61            2.0283     1.0469     0.5037 H       
  62 H62            1.6925     1.0235     2.2406 H       
  63 H63            1.1024    -1.0238     0.1481 H       
  64 H64            1.7367    -1.2246     1.7916 H       
  65 H65           -0.5235    -0.6931     2.6908 H       
  66 H66           -0.5307    -2.1281     1.6320 H       
  67 H67           -2.5367    -4.4571    -1.8733 H       
  68 H68           -1.5495    -4.4927    -3.3540 H       
  69 H69           -0.7685    -4.6274    -1.7602 H       
  70 H70           -2.2572    -2.1789    -2.8116 H       
  71 H71           -0.4891    -2.3493    -2.6985 H       
@<TRIPOS>BOND
   1    1    2 1
   2    1   32 2
   3    1    5 1
   4    2   36 1
   5    2    3 1
   6    2   35 1
   7    3    4 1
   8    3    6 1
   9    3   41 1
  10    4    5 am
  11    4    7 2
  12    5   11 1
  13    6    8 1
  14    6   42 1
  15    6   43 1
  16    8    9 am
  17    8   10 2
  18    9   20 1
  19    9   21 1
  20   11   12 1
  21   11   44 1
  22   11   45 1
  23   12   13 ar
  24   12   14 ar
  25   13   17 ar
  26   13   46 1
  27   14   15 ar
  28   14   18 1
  29   15   16 ar
  30   15   47 1
  31   16   17 ar
  32   16   19 1
  33   17   48 1
  34   20   24 1
  35   20   49 1
  36   20   50 1
  37   21   22 1
  38   21   51 1
  39   21   52 1
  40   22   23 1
  41   22   53 1
  42   22   54 1
  43   23   24 1
  44   23   25 am
  45   24   55 1
  46   24   56 1
  47   25   27 1
  48   25   26 2
  49   27   28 2
  50   27   31 1
  51   28   29 1
  52   28   57 1
  53   29   30 2
  54   29   58 1
  55   30   31 1
  56   30   59 1
  57   32   33 1
  58   32   60 1
  59   33   34 1
  60   33   61 1
  61   33   62 1
  62   34   35 1
  63   34   63 1
  64   34   64 1
  65   35   65 1
  66   35   66 1
  67   36   37 2
  68   36   38 1
  69   38   40 1
  70   39   40 1
  71   39   67 1
  72   39   68 1
  73   39   69 1
  74   40   70 1
  75   40   71 1

#	End of record

