#	Name: ASD03090198
#	Creating user name:	WinNT
#	Creation time:	15. 06. 2019 20:28

#	Modifying user name:	WinNT
#	Modification time:	15. 06. 2019 20:28

#	Program:	/corina/corina34_cracker 3.40 0067  02.08.2006

@<TRIPOS>MOLECULE
ASD03090198
  60   63    0    0    0
SMALL
NO_CHARGES


@<TRIPOS>ATOM
   1 C1            -0.1640     0.9865    -0.8617 C.ar    
   2 C2             0.9803     1.5130    -1.4690 C.ar    
   3 C3             2.2035     0.9107    -1.2919 C.ar    
   4 C4             2.3115    -0.2350    -0.5014 C.ar    
   5 C5             1.1710    -0.7617     0.1058 C.ar    
   6 C6            -0.0520    -0.1520    -0.0766 C.ar    
   7 C7             3.6253    -0.8860    -0.3095 C.2     
   8 N8             7.1393    -0.9759    -0.3693 N.pl3   
   9 C9             7.5954     0.2270    -0.9183 C.ar    
  10 C10            6.8476     0.8742    -1.8933 C.ar    
  11 C11            7.2997     2.0623    -2.4337 C.ar    
  12 C12            8.4977     2.6077    -2.0045 C.ar    
  13 C13            9.2453     1.9638    -1.0326 C.ar    
  14 C14            8.7942     0.7790    -0.4851 C.ar    
  15 N15            4.8031    -0.3362    -0.5305 N.2     
  16 C16            5.7686    -1.2139    -0.2510 C.2     
  17 N17            5.2224    -2.3375     0.1527 N.2     
  18 N18            3.8311    -2.1484     0.1292 N.pl3   
  19 C19            2.8058    -3.1276     0.4979 C.3     
  20 C20            2.5534    -3.0587     2.0054 C.3     
  21 C21            1.4987    -4.0660     2.3847 C.2     
  22 F22            8.9382     3.7695    -2.5348 F       
  23 N23            1.1116    -4.1848     3.6702 N.am    
  24 O24            0.9981    -4.7698     1.5332 O.2     
  25 C25            0.0863    -5.1641     4.0389 C.3     
  26 C26            1.7162    -3.3347     4.6988 C.3     
  27 C27           -1.4230    -0.5060     0.4552 C.3     
  28 C28           -2.3519     0.5746    -0.1215 C.3     
  29 N29           -1.4814     1.4478    -0.9130 N.am    
  30 C30           -1.8930     2.5338    -1.5969 C.2     
  31 O31           -1.1116     3.1411    -2.2979 O.2     
  32 C32           -3.3243     2.9934    -1.4905 C.3     
  33 C33           10.5494     2.5594    -0.5682 C.3     
  34 F34           11.1166     1.7351     0.4095 F       
  35 F35           11.4258     2.6668    -1.6534 F       
  36 F36           10.3163     3.8294    -0.0296 F       
  37 H37            0.9025     2.3989    -2.0818 H       
  38 H38            3.0818     1.3242    -1.7651 H       
  39 H39            1.2463    -1.6477     0.7188 H       
  40 H40            7.7752    -1.6447    -0.0708 H       
  41 H41            5.9134     0.4487    -2.2289 H       
  42 H42            6.7185     2.5659    -3.1919 H       
  43 H43            9.3774     0.2774     0.2730 H       
  44 H44            1.8819    -2.9048    -0.0358 H       
  45 H45            3.1467    -4.1282     0.2320 H       
  46 H46            3.4773    -3.2815     2.5390 H       
  47 H47            2.2125    -2.0581     2.2713 H       
  48 H48            0.5622    -6.1133     4.2850 H       
  49 H49           -0.4687    -4.8009     4.9039 H       
  50 H50           -0.5976    -5.3066     3.2022 H       
  51 H51            2.4518    -2.6749     4.2386 H       
  52 H52            0.9409    -2.7365     5.1776 H       
  53 H53            2.2057    -3.9600     5.4454 H       
  54 H54           -1.7238    -1.4930     0.1042 H       
  55 H55           -1.4290    -0.4707     1.5447 H       
  56 H56           -3.1133     0.1197    -0.7552 H       
  57 H57           -2.8187     1.1413     0.6842 H       
  58 H58           -3.8918     2.2794    -0.8936 H       
  59 H59           -3.3569     3.9728    -1.0133 H       
  60 H60           -3.7595     3.0603    -2.4876 H       
@<TRIPOS>BOND
   1    1    2 ar
   2    1    6 ar
   3    1   29 1
   4    2    3 ar
   5    2   37 1
   6    3    4 ar
   7    3   38 1
   8    4    5 ar
   9    4    7 1
  10    5    6 ar
  11    5   39 1
  12    6   27 1
  13    7   15 2
  14    7   18 1
  15    8    9 1
  16    8   16 1
  17    8   40 1
  18    9   10 ar
  19    9   14 ar
  20   10   11 ar
  21   10   41 1
  22   11   12 ar
  23   11   42 1
  24   12   13 ar
  25   12   22 1
  26   13   14 ar
  27   13   33 1
  28   14   43 1
  29   15   16 1
  30   16   17 2
  31   17   18 1
  32   18   19 1
  33   19   20 1
  34   19   44 1
  35   19   45 1
  36   20   21 1
  37   20   46 1
  38   20   47 1
  39   21   23 am
  40   21   24 2
  41   23   25 1
  42   23   26 1
  43   25   48 1
  44   25   49 1
  45   25   50 1
  46   26   51 1
  47   26   52 1
  48   26   53 1
  49   27   28 1
  50   27   54 1
  51   27   55 1
  52   28   29 1
  53   28   56 1
  54   28   57 1
  55   29   30 am
  56   30   31 2
  57   30   32 1
  58   32   58 1
  59   32   59 1
  60   32   60 1
  61   33   34 1
  62   33   35 1
  63   33   36 1

#	End of record

