#	Name: ASD01882192
#	Creating user name:	WinNT
#	Creation time:	15. 06. 2019 19:44

#	Modifying user name:	WinNT
#	Modification time:	15. 06. 2019 19:44

#	Program:	/corina/corina34_cracker 3.40 0067  02.08.2006

@<TRIPOS>MOLECULE
ASD01882192
  60   65    0    0    0
SMALL
NO_CHARGES


@<TRIPOS>ATOM
   1 C1             0.0065     1.3270    -0.1079 C.2     
   2 N2             0.0473     0.0054    -0.0062 N.2     
   3 C3             1.2085    -0.6516     0.0823 C.2     
   4 C4             2.4269     0.0735     0.0678 C.2     
   5 C5             2.3725     1.4178    -0.0361 C.2     
   6 N6             1.1582     2.0390    -0.1237 N.pl3   
   7 O7            -1.0898     2.1099    -0.2094 O.3     
   8 C8             0.8391     3.4719    -0.2430 C.3     
   9 C9            -0.6979     3.5061    -0.3001 C.3     
  10 O10            1.2196    -1.8695     0.1756 O.2     
  11 C11            3.6424     2.2290    -0.0550 C.3     
  12 C12            3.8919     3.1781     1.1188 C.3     
  13 C13            4.7110     1.8927     0.9870 C.3     
  14 C14           -1.1673     4.1088    -1.6257 C.3     
  15 O15           -2.5954     4.1569    -1.6480 O.3     
  16 C16           -3.1781     4.6692    -2.7637 C.ar    
  17 C17           -4.5605     4.7458    -2.8528 C.ar    
  18 C18           -5.1504     5.2669    -3.9880 C.ar    
  19 C19           -4.3644     5.7120    -5.0349 C.ar    
  20 C20           -2.9866     5.6363    -4.9487 C.ar    
  21 C21           -2.3916     5.1217    -3.8131 C.ar    
  22 C22           -4.0971     6.1147    -7.4824 C.3     
  23 C23           -4.7259     6.8340    -8.6737 C.3     
  24 C24           -6.1245     6.3180    -8.9812 C.3     
  25 C25           -7.0140     6.2535    -7.7484 C.3     
  26 C26           -6.3322     5.5769    -6.5646 C.3     
  27 C27           -6.1125     4.0925    -6.8173 C.3     
  28 C28           -5.1094     3.8297    -7.9303 C.3     
  29 C29           -3.8369     4.6493    -7.7857 C.3     
  30 C30           -5.0084     6.2780    -6.2677 C.3     
  31 H31            3.3756    -0.4378     0.1385 H       
  32 H32            1.2036     4.0184     0.6267 H       
  33 H33            1.2630     3.8829    -1.1593 H       
  34 H34           -1.1010     4.0707     0.5406 H       
  35 H35            3.9824     2.5472    -1.0405 H       
  36 H36            4.3964     4.1205     0.9056 H       
  37 H37            3.1375     3.2158     1.9047 H       
  38 H38            4.4956     1.0846     1.6861 H       
  39 H39            5.7545     1.9894     0.6870 H       
  40 H40           -0.7682     5.1180    -1.7275 H       
  41 H41           -0.8116     3.4924    -2.4513 H       
  42 H42           -5.1748     4.3980    -2.0355 H       
  43 H43           -6.2265     5.3264    -4.0580 H       
  44 H44           -2.3748     5.9839    -5.7680 H       
  45 H45           -1.3152     5.0672    -3.7442 H       
  46 H46           -3.1361     6.6031    -7.2567 H       
  47 H47           -4.7748     7.9065    -8.4579 H       
  48 H48           -4.0873     6.6937    -9.5522 H       
  49 H49           -6.5924     7.0274    -9.6932 H       
  50 H50           -6.0892     5.3647    -9.4942 H       
  51 H51           -7.3023     7.2711    -7.4593 H       
  52 H52           -7.9314     5.7056    -7.9931 H       
  53 H53           -6.9827     5.6871    -5.6827 H       
  54 H54           -5.7852     3.5965    -5.9002 H       
  55 H55           -7.0756     3.6397    -7.1000 H       
  56 H56           -4.8240     2.7592    -7.8751 H       
  57 H57           -5.5590     3.9629    -8.9074 H       
  58 H58           -3.2666     4.5803    -8.7256 H       
  59 H59           -3.2068     4.2110    -7.0045 H       
  60 H60           -5.2008     7.3455    -6.1108 H       
@<TRIPOS>BOND
   1    1    2 2
   2    1    6 1
   3    1    7 1
   4    2    3 1
   5    3    4 1
   6    3   10 2
   7    4    5 2
   8    4   31 1
   9    5    6 1
  10    5   11 1
  11    6    8 1
  12    7    9 1
  13    8    9 1
  14    8   32 1
  15    8   33 1
  16    9   14 1
  17    9   34 1
  18   11   12 1
  19   11   13 1
  20   11   35 1
  21   12   13 1
  22   12   36 1
  23   12   37 1
  24   13   38 1
  25   13   39 1
  26   14   15 1
  27   14   40 1
  28   14   41 1
  29   15   16 1
  30   16   17 ar
  31   16   21 ar
  32   17   18 ar
  33   17   42 1
  34   18   19 ar
  35   18   43 1
  36   19   20 ar
  37   19   30 1
  38   20   21 ar
  39   20   44 1
  40   21   45 1
  41   22   23 1
  42   22   29 1
  43   22   30 1
  44   22   46 1
  45   23   24 1
  46   23   47 1
  47   23   48 1
  48   24   25 1
  49   24   49 1
  50   24   50 1
  51   25   26 1
  52   25   51 1
  53   25   52 1
  54   26   27 1
  55   26   30 1
  56   26   53 1
  57   27   28 1
  58   27   54 1
  59   27   55 1
  60   28   29 1
  61   28   56 1
  62   28   57 1
  63   29   58 1
  64   29   59 1
  65   30   60 1

#	End of record

