#	Name: ASD02560152
#	Creating user name:	WinNT
#	Creation time:	15. 06. 2019 20:24

#	Modifying user name:	WinNT
#	Modification time:	15. 06. 2019 20:24

#	Program:	/corina/corina34_cracker 3.40 0067  02.08.2006

@<TRIPOS>MOLECULE
ASD02560152
  68   71    0    0    0
SMALL
NO_CHARGES


@<TRIPOS>ATOM
   1 N1            -0.1648     1.0048     0.0422 N.2     
   2 N2            -0.0432    -0.2240     0.0247 N.2     
   3 C3             1.1377     1.6695    -0.0944 C.3     
   4 N4             2.1359     0.6096     0.1967 N.3     
   5 C5             1.3638    -0.6167    -0.1270 C.3     
   6 S6             1.7768    -1.9480     1.0338 S.3     
   7 C7             1.3104    -1.2476     2.6408 C.3     
   8 C8             1.5976    -2.2505     3.7283 C.2     
   9 O9             2.0704    -3.3314     3.4470 O.2     
  10 N10            1.3291    -1.9463     5.0136 N.am    
  11 C11            3.2524     0.7318    -0.6336 C.ar    
  12 C12            1.5036    -2.9113     6.0124 C.ar    
  13 C13            0.6460    -2.9452     7.1057 C.ar    
  14 C14            0.8211    -3.8996     8.0895 C.ar    
  15 C15            1.8483    -4.8200     7.9866 C.ar    
  16 C16            2.7027    -4.7885     6.9002 C.ar    
  17 C17            2.5300    -3.8402     5.9104 C.ar    
  18 Cl18          -0.6431    -1.7897     7.2353 Cl      
  19 S19            2.0688    -6.0352     9.2434 S.o2    
  20 O20            3.4303    -6.4368     9.1787 O.2     
  21 O21            1.4684    -5.5098    10.4193 O.2     
  22 C22            4.1840     1.7437    -0.3986 C.ar    
  23 C23            3.4315    -0.1565    -1.6830 C.ar    
  24 C24            4.5365    -0.0338    -2.5020 C.ar    
  25 C25            5.4558     0.9692    -2.2698 C.ar    
  26 C26            5.2854     1.8573    -1.2150 C.ar    
  27 C27            6.3365     2.9178    -1.0149 C.3     
  28 C28            5.8022     4.0438    -0.1322 C.3     
  29 C29            5.2073     3.4226     1.1371 C.3     
  30 C30            3.9271     2.6808     0.7523 C.3     
  31 N31            1.1702    -7.3571     8.8102 N.am    
  32 C32            1.5149    -8.1137     7.6040 C.3     
  33 C33            0.7977    -9.4650     7.6273 C.3     
  34 C34            6.6602     1.0987    -3.1662 C.3     
  35 C35            1.1523   -10.2434     6.3865 C.2     
  36 O36            1.9017    -9.7663     5.5676 O.2     
  37 O37            0.6355   -11.4667     6.1912 O.3     
  38 C38            1.3201     2.1963    -1.5192 C.3     
  39 F39            0.2313     3.0060    -1.8600 F       
  40 F40            2.4992     2.9457    -1.5920 F       
  41 H41            1.2263     2.4826     0.6261 H       
  42 H42            1.5619    -0.9305    -1.1519 H       
  43 H43            1.8860    -0.3399     2.8223 H       
  44 H44            0.2469    -1.0089     2.6383 H       
  45 H45            1.0149    -1.0586     5.2464 H       
  46 H46            0.1555    -3.9267     8.9396 H       
  47 H47            3.5040    -5.5085     6.8233 H       
  48 H48            3.1981    -3.8165     5.0622 H       
  49 H49            2.7104    -0.9411    -1.8588 H       
  50 H50            4.6813    -0.7213    -3.3222 H       
  51 H51            7.2105     2.4724    -0.5397 H       
  52 H52            6.6239     3.3262    -1.9838 H       
  53 H53            6.6159     4.7178     0.1356 H       
  54 H54            5.0295     4.5951    -0.6680 H       
  55 H55            5.9222     2.7258     1.5745 H       
  56 H56            4.9732     4.2084     1.8553 H       
  57 H57            3.1644     3.4048     0.4657 H       
  58 H58            3.5731     2.1068     1.6086 H       
  59 H59            0.4157    -7.6303     9.3551 H       
  60 H60            1.2047    -7.5529     6.7223 H       
  61 H61            2.5924    -8.2748     7.5717 H       
  62 H62            1.1079   -10.0258     8.5090 H       
  63 H63           -0.2798    -9.3039     7.6596 H       
  64 H64            6.4224     1.7574    -4.0015 H       
  65 H65            7.4919     1.5169    -2.5992 H       
  66 H66            6.9376     0.1155    -3.5464 H       
  67 H67            0.8921   -11.9273     5.3805 H       
  68 H68            1.3797     1.3570    -2.2121 H       
@<TRIPOS>BOND
   1    1    2 2
   2    1    3 1
   3    2    5 1
   4    3    4 1
   5    3   38 1
   6    3   41 1
   7    4    5 1
   8    4   11 1
   9    5    6 1
  10    5   42 1
  11    6    7 1
  12    7    8 1
  13    7   43 1
  14    7   44 1
  15    8    9 2
  16    8   10 am
  17   10   12 1
  18   10   45 1
  19   11   22 ar
  20   11   23 ar
  21   12   13 ar
  22   12   17 ar
  23   13   14 ar
  24   13   18 1
  25   14   15 ar
  26   14   46 1
  27   15   16 ar
  28   15   19 1
  29   16   17 ar
  30   16   47 1
  31   17   48 1
  32   19   20 2
  33   19   21 2
  34   19   31 am
  35   22   26 ar
  36   22   30 1
  37   23   24 ar
  38   23   49 1
  39   24   25 ar
  40   24   50 1
  41   25   26 ar
  42   25   34 1
  43   26   27 1
  44   27   28 1
  45   27   51 1
  46   27   52 1
  47   28   29 1
  48   28   53 1
  49   28   54 1
  50   29   30 1
  51   29   55 1
  52   29   56 1
  53   30   57 1
  54   30   58 1
  55   31   32 1
  56   31   59 1
  57   32   33 1
  58   32   60 1
  59   32   61 1
  60   33   35 1
  61   33   62 1
  62   33   63 1
  63   34   64 1
  64   34   65 1
  65   34   66 1
  66   35   36 2
  67   35   37 1
  68   37   67 1
  69   38   39 1
  70   38   40 1
  71   38   68 1

#	End of record

