#	Name: ASD03090882
#	Creating user name:	WinNT
#	Creation time:	15. 06. 2019 20:29

#	Modifying user name:	WinNT
#	Modification time:	15. 06. 2019 20:29

#	Program:	/corina/corina34_cracker 3.40 0067  02.08.2006

@<TRIPOS>MOLECULE
ASD03090882
  44   48    0    0    0
SMALL
NO_CHARGES


@<TRIPOS>ATOM
   1 C1            -0.0172     1.4605     0.1286 C.3     
   2 N2             0.0025    -0.0054     0.0957 N.am    
   3 C3             1.4114    -0.4120     0.0878 C.3     
   4 C4             2.2502     0.8406     0.1165 C.ar    
   5 C5             3.6231     1.0189     0.1213 C.ar    
   6 C6             4.1563     2.2929     0.1503 C.ar    
   7 C7             3.3178     3.3919     0.1743 C.ar    
   8 C8             1.9477     3.2147     0.1691 C.ar    
   9 C9             1.4128     1.9381     0.1405 C.ar    
  10 C10           -1.0691    -0.8225     0.0769 C.2     
  11 O11           -2.1938    -0.3530     0.0869 O.2     
  12 N12           -0.8985    -2.1473     0.0473 N.2     
  13 S13           -3.6157    -2.4924     0.0377 S.3     
  14 C14           -1.9568    -2.9543     0.0287 C.2     
  15 N15           -1.9513    -4.3109    -0.0017 N.pl3   
  16 C16           -3.1630    -4.9318    -0.0167 C.2     
  17 C17           -4.2358    -4.1519    -0.0000 C.2     
  18 C18           -5.6789    -4.5860    -0.0114 C.3     
  19 O19            2.8943    -6.9544    -0.0859 O.3     
  20 C20            3.7282    -5.8168     0.2032 C.3     
  21 O21            2.9447    -4.6953    -0.2458 O.3     
  22 C22            1.6436    -5.0961    -0.1459 C.ar    
  23 C23            1.6120    -6.4856    -0.0476 C.ar    
  24 C24            0.4611    -4.3763    -0.1309 C.ar    
  25 C25           -0.7534    -5.0395    -0.0175 C.ar    
  26 C26           -0.7817    -6.4238     0.0805 C.ar    
  27 C27            0.3981    -7.1433     0.0660 C.ar    
  28 F28            3.9755    -5.7251     1.5771 F       
  29 F29            4.9294    -5.8941    -0.5098 F       
  30 H30           -0.5272     1.8430    -0.7556 H       
  31 H31           -0.5286     1.8030     1.0282 H       
  32 H32            1.6253    -1.0202     0.9666 H       
  33 H33            1.6268    -0.9802    -0.8171 H       
  34 H34            4.2783     0.1605     0.1026 H       
  35 H35            5.2275     2.4304     0.1547 H       
  36 H36            3.7336     4.3884     0.1974 H       
  37 H37            1.2929     4.0734     0.1882 H       
  38 H38           -3.2467    -6.0083    -0.0409 H       
  39 H39           -6.3229    -3.7068     0.0070 H       
  40 H40           -5.8776    -5.1631    -0.9145 H       
  41 H41           -5.8799    -5.2021     0.8650 H       
  42 H42            0.4834    -3.2992    -0.2067 H       
  43 H43           -1.7268    -6.9391     0.1686 H       
  44 H44            0.3737    -8.2203     0.1419 H       
@<TRIPOS>BOND
   1    1    2 1
   2    1    9 1
   3    1   30 1
   4    1   31 1
   5    2    3 1
   6    2   10 am
   7    3    4 1
   8    3   32 1
   9    3   33 1
  10    4    5 ar
  11    4    9 ar
  12    5    6 ar
  13    5   34 1
  14    6    7 ar
  15    6   35 1
  16    7    8 ar
  17    7   36 1
  18    8    9 ar
  19    8   37 1
  20   10   11 2
  21   10   12 1
  22   12   14 2
  23   13   14 1
  24   13   17 1
  25   14   15 1
  26   15   16 1
  27   15   25 1
  28   16   17 2
  29   16   38 1
  30   17   18 1
  31   18   39 1
  32   18   40 1
  33   18   41 1
  34   19   20 1
  35   19   23 1
  36   20   21 1
  37   20   28 1
  38   20   29 1
  39   21   22 1
  40   22   23 ar
  41   22   24 ar
  42   23   27 ar
  43   24   25 ar
  44   24   42 1
  45   25   26 ar
  46   26   27 ar
  47   26   43 1
  48   27   44 1

#	End of record

