#	Name: ASD00069154
#	Creating user name:	WinNT
#	Creation time:	15. 06. 2019 18:29

#	Modifying user name:	WinNT
#	Modification time:	15. 06. 2019 18:29

#	Program:	/corina/corina34_cracker 3.40 0067  02.08.2006

@<TRIPOS>MOLECULE
ASD00069154
  61   64    0    0    0
SMALL
NO_CHARGES


@<TRIPOS>ATOM
   1 C1            -0.0056     1.2006    -1.1000 C.2     
   2 N2             0.0387    -0.0853    -0.8310 N.2     
   3 C3             1.2719    -0.5416    -1.0836 C.2     
   4 C4             2.0277     0.5070    -1.5292 C.2     
   5 N5             1.2276     1.5963    -1.5390 N.pl3   
   6 C6            -1.1882     2.0694    -0.9581 C.2     
   7 O7            -1.1123     3.2505    -1.2383 O.2     
   8 N8            -2.3535     1.5548    -0.5178 N.am    
   9 C9             1.3426    -4.2194    -0.2981 C.ar    
  10 C10            0.8692    -2.9318    -0.4447 C.ar    
  11 C11            1.7367    -1.9394    -0.9099 C.ar    
  12 C12            3.0543    -2.3003    -1.2075 C.ar    
  13 C13            3.4448    -3.6113    -1.0321 C.ar    
  14 N14            2.5940    -4.5182    -0.5903 N.ar    
  15 C15            0.4196    -5.2976     0.2084 C.3     
  16 C16           -3.4441     2.3989    -0.2744 C.ar    
  17 C17           -4.7344     1.8740    -0.2143 C.ar    
  18 C18           -5.8113     2.7166     0.0274 C.ar    
  19 C19           -5.6011     4.0728     0.2077 C.ar    
  20 C20           -4.3209     4.5917     0.1474 C.ar    
  21 C21           -3.2429     3.7586    -0.0867 C.ar    
  22 F22           -7.0636     2.2130     0.0862 F       
  23 N23           -4.9437     0.5012    -0.3976 N.3     
  24 C24           -5.5707    -0.0984     0.7872 C.3     
  25 C25           -5.6508    -1.6164     0.6104 C.3     
  26 C26           -6.4717    -1.9369    -0.6418 C.3     
  27 C27           -5.8245    -1.2609    -1.8536 C.3     
  28 C28           -5.7393     0.2468    -1.6054 C.3     
  29 C29           -6.5044    -3.4512    -0.8580 C.3     
  30 N30           -7.2595    -4.0852     0.2310 N.3     
  31 C31           -8.7050    -3.8975     0.0481 C.3     
  32 C32           -6.9238    -5.5108     0.3440 C.3     
  33 H33            3.0678     0.4717    -1.8182 H       
  34 H34            1.4811     2.4930    -1.8084 H       
  35 H35           -2.4367     0.5998    -0.3696 H       
  36 H36           -0.1565    -2.6943    -0.2040 H       
  37 H37            3.7558    -1.5633    -1.5697 H       
  38 H38            4.4604    -3.8997    -1.2596 H       
  39 H39           -0.0838    -5.7707    -0.6347 H       
  40 H40            0.9976    -6.0447     0.7523 H       
  41 H41           -0.3227    -4.8572     0.8742 H       
  42 H42           -6.4393     4.7274     0.3957 H       
  43 H43           -4.1621     5.6507     0.2884 H       
  44 H44           -2.2441     4.1672    -0.1283 H       
  45 H45           -4.9748     0.1334     1.6700 H       
  46 H46           -6.5752     0.3064     0.9107 H       
  47 H47           -4.6457    -2.0236     0.5007 H       
  48 H48           -6.1303    -2.0596     1.4832 H       
  49 H49           -7.4882    -1.5639    -0.5163 H       
  50 H50           -4.8221    -1.6624    -2.0021 H       
  51 H51           -6.4281    -1.4500    -2.7413 H       
  52 H52           -6.7430     0.6500    -1.4707 H       
  53 H53           -5.2659     0.7295    -2.4604 H       
  54 H54           -6.9861    -3.6719    -1.8106 H       
  55 H55           -5.4857    -3.8390    -0.8675 H       
  56 H56           -9.0256    -4.4081    -0.8600 H       
  57 H57           -9.2364    -4.3119     0.9048 H       
  58 H58           -8.9254    -2.8334    -0.0362 H       
  59 H59           -5.8586    -5.6182     0.5487 H       
  60 H60           -7.4968    -5.9556     1.1576 H       
  61 H61           -7.1670    -6.0165    -0.5905 H       
@<TRIPOS>BOND
   1    1    2 2
   2    1    5 1
   3    1    6 1
   4    2    3 1
   5    3    4 2
   6    3   11 1
   7    4    5 1
   8    4   33 1
   9    5   34 1
  10    6    7 2
  11    6    8 am
  12    8   16 1
  13    8   35 1
  14    9   10 ar
  15    9   14 ar
  16    9   15 1
  17   10   11 ar
  18   10   36 1
  19   11   12 ar
  20   12   13 ar
  21   12   37 1
  22   13   14 ar
  23   13   38 1
  24   15   39 1
  25   15   40 1
  26   15   41 1
  27   16   17 ar
  28   16   21 ar
  29   17   18 ar
  30   17   23 1
  31   18   19 ar
  32   18   22 1
  33   19   20 ar
  34   19   42 1
  35   20   21 ar
  36   20   43 1
  37   21   44 1
  38   23   24 1
  39   23   28 1
  40   24   25 1
  41   24   45 1
  42   24   46 1
  43   25   26 1
  44   25   47 1
  45   25   48 1
  46   26   27 1
  47   26   29 1
  48   26   49 1
  49   27   28 1
  50   27   50 1
  51   27   51 1
  52   28   52 1
  53   28   53 1
  54   29   30 1
  55   29   54 1
  56   29   55 1
  57   30   31 1
  58   30   32 1
  59   31   56 1
  60   31   57 1
  61   31   58 1
  62   32   59 1
  63   32   60 1
  64   32   61 1

#	End of record

