#	Name: ASD08150368
#	Creating user name:	WinNT
#	Creation time:	15. 06. 2019 21:15

#	Modifying user name:	WinNT
#	Modification time:	15. 06. 2019 21:15

#	Program:	/corina/corina34_cracker 3.40 0067  02.08.2006

@<TRIPOS>MOLECULE
ASD08150368
  43   47    0    0    0
SMALL
NO_CHARGES


@<TRIPOS>ATOM
   1 C1             1.2417    -0.4168     1.1633 C.3     
   2 N2             1.7485    -4.5424    -1.4637 N.am    
   3 C3             2.8536    -4.5829    -2.2331 C.2     
   4 C4             2.8427    -5.2380    -3.4813 C.2     
   5 C5             1.7110    -5.8407    -3.9266 C.2     
   6 C6             0.5466    -5.8005    -3.1196 C.ar    
   7 C7            -0.6532    -6.4100    -3.5341 C.ar    
   8 N8            -1.7256    -6.3716    -2.7875 N.ar    
   9 C9            -1.7483    -5.7567    -1.5951 C.ar    
  10 C10           -0.5862    -5.1167    -1.0984 C.ar    
  11 C11            0.5910    -5.1397    -1.8824 C.ar    
  12 C12           -0.6207    -4.4778     0.1452 C.ar    
  13 C13           -1.7946    -4.4780     0.8797 C.ar    
  14 C14           -2.9404    -5.1132     0.3820 C.ar    
  15 C15           -2.9229    -5.7392    -0.8254 C.ar    
  16 O16            3.8768    -4.0454    -1.8449 O.2     
  17 C17           -1.8395    -3.8025     2.2008 C.2     
  18 C18            1.7864    -3.8898    -0.2252 C.ar    
  19 C19            2.1041    -4.5999     0.9255 C.ar    
  20 C20            2.1414    -3.9545     2.1456 C.ar    
  21 C21            1.8623    -2.6000     2.2225 C.ar    
  22 C22            1.5454    -1.8903     1.0765 C.ar    
  23 C23            1.5121    -2.5309    -0.1466 C.ar    
  24 F24            1.8989    -1.9705     3.4173 F       
  25 C25           -1.1778    -2.6085     2.5482 C.2     
  26 N26           -1.4617    -2.3347     3.7939 N.2     
  27 N27           -2.3087    -3.3344     4.2874 N.pl3   
  28 C28           -2.5340    -4.2222     3.2979 C.2     
  29 H29            2.1635     0.1520     1.0412 H       
  30 H30            0.5393    -0.1436     0.3758 H       
  31 H31            0.8027    -0.1929     2.1355 H       
  32 H32            3.7377    -5.2600    -4.0854 H       
  33 H33            1.6979    -6.3434    -4.8824 H       
  34 H34           -0.6882    -6.9181    -4.4865 H       
  35 H35            0.2617    -3.9882     0.5300 H       
  36 H36           -3.8493    -5.1061     0.9653 H       
  37 H37           -3.8151    -6.2238    -1.1936 H       
  38 H38            2.3214    -5.6561     0.8661 H       
  39 H39            2.3879    -4.5064     3.0406 H       
  40 H40            1.2690    -1.9762    -1.0408 H       
  41 H41           -0.5457    -2.0217     1.8982 H       
  42 H42           -2.6734    -3.3786     5.1851 H       
  43 H43           -3.1477    -5.1084     3.3637 H       
@<TRIPOS>BOND
   1    1   22 1
   2    1   29 1
   3    1   30 1
   4    1   31 1
   5    2    3 am
   6    2   11 1
   7    2   18 1
   8    3    4 1
   9    3   16 2
  10    4    5 2
  11    4   32 1
  12    5    6 1
  13    5   33 1
  14    6    7 ar
  15    6   11 ar
  16    7    8 ar
  17    7   34 1
  18    8    9 ar
  19    9   10 ar
  20    9   15 ar
  21   10   11 ar
  22   10   12 ar
  23   12   13 ar
  24   12   35 1
  25   13   14 ar
  26   13   17 1
  27   14   15 ar
  28   14   36 1
  29   15   37 1
  30   17   25 1
  31   17   28 2
  32   18   19 ar
  33   18   23 ar
  34   19   20 ar
  35   19   38 1
  36   20   21 ar
  37   20   39 1
  38   21   22 ar
  39   21   24 1
  40   22   23 ar
  41   23   40 1
  42   25   26 2
  43   25   41 1
  44   26   27 1
  45   27   28 1
  46   27   42 1
  47   28   43 1

#	End of record

