#	Name: ASD01882306
#	Creating user name:	WinNT
#	Creation time:	15. 06. 2019 19:44

#	Modifying user name:	WinNT
#	Modification time:	15. 06. 2019 19:44

#	Program:	/corina/corina34_cracker 3.40 0067  02.08.2006

@<TRIPOS>MOLECULE
ASD01882306
  50   53    0    0    0
SMALL
NO_CHARGES


@<TRIPOS>ATOM
   1 C1             0.7418     1.4446    -1.2210 C.2     
   2 C2             1.1257     0.0924    -1.1938 C.2     
   3 C3             0.6396    -0.7191    -0.2041 C.2     
   4 C4            -0.2347    -0.1858     0.7673 C.2     
   5 C5            -0.5895     1.1134     0.7221 C.2     
   6 N6            -0.1108     1.9309    -0.2600 N.pl3   
   7 N7             0.4207     3.5148    -1.6198 N.2     
   8 N8             1.0351     2.4581    -2.0215 N.2     
   9 C9            -0.2882     3.2509    -0.5539 C.2     
  10 C10           -1.1433     4.2273     0.2119 C.3     
  11 C11           -0.3033     4.8947     1.3027 C.3     
  12 F12            0.7688     5.5747     0.7150 F       
  13 F13           -1.0971     5.8011     2.0136 F       
  14 F14            0.1866     3.9184     2.1768 F       
  15 N15            1.0050    -2.0623    -0.1564 N.pl3   
  16 C16            2.3934    -2.4573     0.1259 C.3     
  17 C17            2.3852    -3.4889     1.2590 C.3     
  18 N18            1.4848    -4.5941     0.9043 N.3     
  19 C19            0.0984    -4.1286     0.7665 C.3     
  20 C20            0.0116    -3.1234    -0.3808 C.3     
  21 C21            1.5744    -5.6313     1.8355 C.ar    
  22 C22            0.9722    -5.5028     3.0807 C.ar    
  23 C23            1.0623    -6.5304     3.9989 C.ar    
  24 C24            1.7510    -7.6864     3.6798 C.ar    
  25 C25            2.3516    -7.8176     2.4412 C.ar    
  26 C26            2.2609    -6.7959     1.5163 C.ar    
  27 C27            3.8010    -4.0304     1.4668 C.3     
  28 C28            1.8969    -2.8266     2.5489 C.3     
  29 Cl29           2.2019    -0.5404    -2.4001 Cl      
  30 H30           -0.6213    -0.8218     1.5499 H       
  31 H31           -1.2594     1.5113     1.4701 H       
  32 H32           -1.5250     4.9880    -0.4692 H       
  33 H33           -1.9786     3.6975     0.6697 H       
  34 H34            2.8375    -2.8976    -0.7669 H       
  35 H35            2.9681    -1.5828     0.4310 H       
  36 H36           -0.5515    -4.9783     0.5572 H       
  37 H37           -0.2176    -3.6478     1.6923 H       
  38 H38           -0.9877    -2.6890    -0.4105 H       
  39 H39            0.2223    -3.6289    -1.3232 H       
  40 H40            0.4345    -4.6001     3.3306 H       
  41 H41            0.5947    -6.4310     4.9673 H       
  42 H42            1.8203    -8.4884     4.3999 H       
  43 H43            2.8887    -8.7217     2.1952 H       
  44 H44            2.7265    -6.9008     0.5475 H       
  45 H45            4.4949    -3.1980     1.5832 H       
  46 H46            3.8248    -4.6513     2.3623 H       
  47 H47            4.0919    -4.6278     0.6027 H       
  48 H48            0.9197    -2.3750     2.3781 H       
  49 H49            1.8179    -3.5771     3.3354 H       
  50 H50            2.6054    -2.0557     2.8522 H       
@<TRIPOS>BOND
   1    1    2 1
   2    1    6 1
   3    1    8 2
   4    2    3 2
   5    2   29 1
   6    3    4 1
   7    3   15 1
   8    4    5 2
   9    4   30 1
  10    5    6 1
  11    5   31 1
  12    6    9 1
  13    7    8 1
  14    7    9 2
  15    9   10 1
  16   10   11 1
  17   10   32 1
  18   10   33 1
  19   11   12 1
  20   11   13 1
  21   11   14 1
  22   15   16 1
  23   15   20 1
  24   16   17 1
  25   16   34 1
  26   16   35 1
  27   17   18 1
  28   17   27 1
  29   17   28 1
  30   18   19 1
  31   18   21 1
  32   19   20 1
  33   19   36 1
  34   19   37 1
  35   20   38 1
  36   20   39 1
  37   21   22 ar
  38   21   26 ar
  39   22   23 ar
  40   22   40 1
  41   23   24 ar
  42   23   41 1
  43   24   25 ar
  44   24   42 1
  45   25   26 ar
  46   25   43 1
  47   26   44 1
  48   27   45 1
  49   27   46 1
  50   27   47 1
  51   28   48 1
  52   28   49 1
  53   28   50 1

#	End of record

