#	Name: ASD09080048
#	Creating user name:	WinNT
#	Creation time:	15. 06. 2019 21:20

#	Modifying user name:	WinNT
#	Modification time:	15. 06. 2019 21:20

#	Program:	/corina/corina34_cracker 3.40 0067  02.08.2006

@<TRIPOS>MOLECULE
ASD09080048
  60   62    0    0    0
SMALL
NO_CHARGES


@<TRIPOS>ATOM
   1 C1            -0.0166     1.3760     0.0096 C.ar    
   2 C2             0.0021    -0.0041     0.0020 C.ar    
   3 C3             1.2195    -0.6816    -0.0133 C.ar    
   4 C4             2.4120     0.0390    -0.0209 C.ar    
   5 C5             2.3816     1.4188    -0.0132 C.ar    
   6 C6             1.1702     2.0863     0.0021 C.ar    
   7 C7             1.1434     3.5931     0.0104 C.3     
   8 C8             1.1204     4.1107    -1.4291 C.3     
   9 C9             0.9676     5.6330    -1.4213 C.3     
  10 N10            2.3726     3.7491    -2.0982 N.am    
  11 C11            0.9446     6.1507    -2.8609 C.3     
  12 O12           -0.0827     5.4786    -3.5924 O.3     
  13 O13           -0.2538     5.9858    -0.7688 O.3     
  14 C14            3.5488     4.1919    -1.6116 C.2     
  15 C15            4.8369     3.8199    -2.2998 C.3     
  16 O16            3.5707     4.8898    -0.6200 O.2     
  17 O17            5.9604     4.3306    -1.5648 O.3     
  18 C18            1.2459    -2.1653    -0.0210 C.ar    
  19 C19            2.4634    -2.8426    -0.0363 C.ar    
  20 C20            2.4827    -4.2239    -0.0435 C.ar    
  21 C21            1.2952    -4.9350    -0.0355 C.ar    
  22 C22            0.0832    -4.2667    -0.0203 C.ar    
  23 C23            0.0534    -2.8856    -0.0072 C.ar    
  24 Cl24           3.9989    -5.0692    -0.0632 Cl      
  25 Cl25          -1.4019    -5.1656    -0.0104 Cl      
  26 C26            6.9838     4.7591    -2.4708 C.3     
  27 C27            6.4572     4.5424    -3.9057 C.3     
  28 C28            4.9199     4.4998    -3.6897 C.3     
  29 C29            0.6714     7.6327    -2.8575 C.2     
  30 O30           -0.3483     8.0602    -3.3447 O.2     
  31 O31            1.5609     8.4779    -2.3133 O.3     
  32 C32            2.3557    10.6921    -1.6841 C.3     
  33 C33            1.2319     9.8918    -2.3455 C.3     
  34 H34           -0.9597     1.9022     0.0169 H       
  35 H35           -0.9252    -0.5577     0.0083 H       
  36 H36            3.3584    -0.4812    -0.0324 H       
  37 H37            3.3053     1.9784    -0.0190 H       
  38 H38            0.2521     3.9377     0.5347 H       
  39 H39            2.0317     3.9695     0.5178 H       
  40 H40            0.2813     3.6640    -1.9625 H       
  41 H41            1.8066     6.0797    -0.8879 H       
  42 H42            2.3550     3.1909    -2.8913 H       
  43 H43            1.9094     5.9602    -3.3310 H       
  44 H44           -0.9702     5.6043    -3.2298 H       
  45 H45           -1.0443     5.6218    -1.1903 H       
  46 H46            4.9118     2.7373    -2.4015 H       
  47 H47            3.3904    -2.2886    -0.0429 H       
  48 H48            1.3145    -6.0148    -0.0416 H       
  49 H49           -0.8928    -2.3651     0.0046 H       
  50 H50            7.1998     5.8156    -2.3117 H       
  51 H51            7.8866     4.1684    -2.3150 H       
  52 H52            6.7354     5.3757    -4.5510 H       
  53 H53            6.8181     3.5979    -4.3128 H       
  54 H54            4.4325     3.8936    -4.4533 H       
  55 H55            4.4992     5.5050    -3.6611 H       
  56 H56            3.2878    10.5236    -2.2235 H       
  57 H57            2.1088    11.7535    -1.7083 H       
  58 H58            2.4712    10.3694    -0.6494 H       
  59 H59            1.1164    10.2145    -3.3802 H       
  60 H60            0.2998    10.0603    -1.8062 H       
@<TRIPOS>BOND
   1    1    2 ar
   2    1    6 ar
   3    1   34 1
   4    2    3 ar
   5    2   35 1
   6    3    4 ar
   7    3   18 1
   8    4    5 ar
   9    4   36 1
  10    5    6 ar
  11    5   37 1
  12    6    7 1
  13    7    8 1
  14    7   38 1
  15    7   39 1
  16    8    9 1
  17    8   10 1
  18    8   40 1
  19    9   11 1
  20    9   13 1
  21    9   41 1
  22   10   14 am
  23   10   42 1
  24   11   12 1
  25   11   29 1
  26   11   43 1
  27   12   44 1
  28   13   45 1
  29   14   16 2
  30   14   15 1
  31   15   17 1
  32   15   28 1
  33   15   46 1
  34   17   26 1
  35   18   19 ar
  36   18   23 ar
  37   19   20 ar
  38   19   47 1
  39   20   21 ar
  40   20   24 1
  41   21   22 ar
  42   21   48 1
  43   22   23 ar
  44   22   25 1
  45   23   49 1
  46   26   27 1
  47   26   50 1
  48   26   51 1
  49   27   28 1
  50   27   52 1
  51   27   53 1
  52   28   54 1
  53   28   55 1
  54   29   30 2
  55   29   31 1
  56   31   33 1
  57   32   33 1
  58   32   56 1
  59   32   57 1
  60   32   58 1
  61   33   59 1
  62   33   60 1

#	End of record

