#	Name: ASD09080111
#	Creating user name:	WinNT
#	Creation time:	15. 06. 2019 21:20

#	Modifying user name:	WinNT
#	Modification time:	15. 06. 2019 21:20

#	Program:	/corina/corina34_cracker 3.40 0067  02.08.2006

@<TRIPOS>MOLECULE
ASD09080111
  50   51    0    0    0
SMALL
NO_CHARGES


@<TRIPOS>ATOM
   1 C1            -0.5743     0.4732     0.2645 C.ar    
   2 C2            -0.3754    -0.8944     0.3433 C.ar    
   3 C3             0.9041    -1.4126     0.2925 C.ar    
   4 C4             1.9953    -0.5563     0.1616 C.ar    
   5 C5             1.7899     0.8194     0.0826 C.ar    
   6 C6             0.5065     1.3280     0.1345 C.ar    
   7 Cl7            0.2489     3.0419     0.0356 Cl      
   8 Cl8           -1.7361    -1.9600     0.5070 Cl      
   9 C9             3.3719    -1.1077     0.1070 C.ar    
  10 C10            4.4634    -0.2516    -0.0239 C.ar    
  11 C11            3.5781    -2.4831     0.1921 C.ar    
  12 C12            4.8606    -2.9906     0.1407 C.ar    
  13 C13            5.9401    -2.1365     0.0054 C.ar    
  14 C14            5.7416    -0.7699    -0.0743 C.ar    
  15 C15            7.3382    -2.6964    -0.0491 C.3     
  16 C16            7.7137    -2.9899    -1.5030 C.3     
  17 C17            9.0820    -3.6730    -1.5484 C.3     
  18 N18            7.7694    -1.7344    -2.2559 N.am    
  19 C19            8.9864    -5.0506    -0.8896 C.3     
  20 C20            7.6331    -1.7462    -3.5967 C.2     
  21 O21            7.4643    -2.7961    -4.1800 O.2     
  22 C22            7.6904    -0.4547    -4.3712 C.3     
  23 O23            7.5216    -0.7266    -5.7640 O.3     
  24 C24            7.5601     0.4372    -6.5922 C.3     
  25 O25            7.9475    -5.8066    -1.5149 O.3     
  26 O26           10.0366    -2.8744    -0.8463 O.3     
  27 C27           10.2987    -5.7746    -1.0466 C.2     
  28 O28           10.3569    -6.7827    -1.7101 O.2     
  29 O29           11.4030    -5.2996    -0.4493 O.3     
  30 H30           -1.5765     0.8742     0.3001 H       
  31 H31            1.0584    -2.4797     0.3544 H       
  32 H32            2.6327     1.4872    -0.0185 H       
  33 H33            4.3095     0.8156    -0.0862 H       
  34 H34            2.7359    -3.1508     0.2985 H       
  35 H35            5.0215    -4.0565     0.2066 H       
  36 H36            6.5880    -0.1076    -0.1802 H       
  37 H37            8.0368    -1.9706     0.3672 H       
  38 H38            7.3833    -3.6182     0.5310 H       
  39 H39            6.9649    -3.6465    -1.9462 H       
  40 H40            9.3967    -3.7874    -2.5857 H       
  41 H41            7.9043    -0.8947    -1.7895 H       
  42 H42            8.7616    -4.9316     0.1703 H       
  43 H43            6.8947     0.2083    -4.0315 H       
  44 H44            8.6562     0.0238    -4.2089 H       
  45 H45            6.7618     1.1188    -6.2985 H       
  46 H46            8.5232     0.9342    -6.4760 H       
  47 H47            7.4247     0.1464    -7.6340 H       
  48 H48            8.0818    -5.9517    -2.4615 H       
  49 H49           10.1492    -1.9855    -1.2100 H       
  50 H50           12.2213    -5.7983    -0.5790 H       
@<TRIPOS>BOND
   1    1    2 ar
   2    1    6 ar
   3    1   30 1
   4    2    3 ar
   5    2    8 1
   6    3    4 ar
   7    3   31 1
   8    4    5 ar
   9    4    9 1
  10    5    6 ar
  11    5   32 1
  12    6    7 1
  13    9   10 ar
  14    9   11 ar
  15   10   14 ar
  16   10   33 1
  17   11   12 ar
  18   11   34 1
  19   12   13 ar
  20   12   35 1
  21   13   14 ar
  22   13   15 1
  23   14   36 1
  24   15   16 1
  25   15   37 1
  26   15   38 1
  27   16   17 1
  28   16   18 1
  29   16   39 1
  30   17   19 1
  31   17   26 1
  32   17   40 1
  33   18   20 am
  34   18   41 1
  35   19   25 1
  36   19   27 1
  37   19   42 1
  38   20   21 2
  39   20   22 1
  40   22   23 1
  41   22   43 1
  42   22   44 1
  43   23   24 1
  44   24   45 1
  45   24   46 1
  46   24   47 1
  47   25   48 1
  48   26   49 1
  49   27   28 2
  50   27   29 1
  51   29   50 1

#	End of record

