#	Name: ASD01910166
#	Creating user name:	WinNT
#	Creation time:	15. 06. 2019 19:55

#	Modifying user name:	WinNT
#	Modification time:	15. 06. 2019 19:55

#	Program:	/corina/corina34_cracker 3.40 0067  02.08.2006

@<TRIPOS>MOLECULE
ASD01910166
  50   52    0    0    0
SMALL
NO_CHARGES


@<TRIPOS>ATOM
   1 C1            -0.2177     1.3702     0.0947 C.ar    
   2 C2             0.0387     0.0329     0.3278 C.ar    
   3 C3             1.3462    -0.4371     0.3195 C.ar    
   4 C4             2.3948     0.4379     0.0765 C.ar    
   5 C5             2.1340     1.7808    -0.1577 C.ar    
   6 C6             0.8245     2.2445    -0.1476 C.ar    
   7 N7             3.1884     2.6663    -0.4026 N.am    
   8 C8             4.2631     2.2566    -1.1052 C.2     
   9 C9             5.3279     3.2170    -1.4512 C.ar    
  10 N10            1.6049    -1.7917     0.5566 N.am    
  11 C11            0.7277    -2.7277     0.1433 C.2     
  12 C12            5.2266     4.5519    -1.0526 C.ar    
  13 C13            6.2250     5.4442    -1.3791 C.ar    
  14 C14            7.3293     5.0236    -2.1016 C.ar    
  15 C15            7.4420     3.7069    -2.5023 C.ar    
  16 C16            6.4502     2.7940    -2.1769 C.ar    
  17 O17           -0.2389    -2.4047    -0.5143 O.2     
  18 O18            4.3549     1.0954    -1.4540 O.2     
  19 O19            6.5597     1.5001    -2.5695 O.3     
  20 C20            7.7249     1.1453    -3.3169 C.3     
  21 C21            0.9479    -4.1757     0.4982 C.3     
  22 C22           -0.1834    -5.0223    -0.0886 C.3     
  23 C23            0.0401    -6.4924     0.2717 C.3     
  24 C24            1.3784    -6.9606    -0.3032 C.3     
  25 C25            2.5097    -6.1140     0.2836 C.3     
  26 C26            2.2862    -4.6439    -0.0767 C.3     
  27 H27           -1.2351     1.7323     0.0976 H       
  28 H28           -0.7781    -0.6479     0.5169 H       
  29 H29            3.4120     0.0750     0.0700 H       
  30 H30            0.6209     3.2893    -0.3298 H       
  31 H31            3.1462     3.5753    -0.0668 H       
  32 H32            2.4156    -2.0570     1.0183 H       
  33 H33            4.3670     4.8844    -0.4897 H       
  34 H34            6.1457     6.4761    -1.0704 H       
  35 H35            8.1068     5.7298    -2.3533 H       
  36 H36            8.3057     3.3867    -3.0660 H       
  37 H37            7.7616     1.7337    -4.2337 H       
  38 H38            8.6146     1.3466    -2.7202 H       
  39 H39            7.6873     0.0850    -3.5669 H       
  40 H40            0.9596    -4.2863     1.5825 H       
  41 H41           -1.1369    -4.6887     0.3209 H       
  42 H42           -0.1951    -4.9117    -1.1729 H       
  43 H43            0.0518    -6.6029     1.3560 H       
  44 H44           -0.7658    -7.0955    -0.1464 H       
  45 H45            1.5377    -8.0079    -0.0465 H       
  46 H46            1.3667    -6.8500    -1.3875 H       
  47 H47            2.5214    -6.2245     1.3680 H       
  48 H48            3.4632    -6.4475    -0.1259 H       
  49 H49            2.2745    -4.5333    -1.1610 H       
  50 H50            3.0922    -4.0407     0.3414 H       
@<TRIPOS>BOND
   1    1    2 ar
   2    1    6 ar
   3    1   27 1
   4    2    3 ar
   5    2   28 1
   6    3    4 ar
   7    3   10 1
   8    4    5 ar
   9    4   29 1
  10    5    6 ar
  11    5    7 1
  12    6   30 1
  13    7    8 am
  14    7   31 1
  15    8    9 1
  16    8   18 2
  17    9   12 ar
  18    9   16 ar
  19   10   11 am
  20   10   32 1
  21   11   17 2
  22   11   21 1
  23   12   13 ar
  24   12   33 1
  25   13   14 ar
  26   13   34 1
  27   14   15 ar
  28   14   35 1
  29   15   16 ar
  30   15   36 1
  31   16   19 1
  32   19   20 1
  33   20   37 1
  34   20   38 1
  35   20   39 1
  36   21   22 1
  37   21   26 1
  38   21   40 1
  39   22   23 1
  40   22   41 1
  41   22   42 1
  42   23   24 1
  43   23   43 1
  44   23   44 1
  45   24   25 1
  46   24   45 1
  47   24   46 1
  48   25   26 1
  49   25   47 1
  50   25   48 1
  51   26   49 1
  52   26   50 1

#	End of record

