#	Name: ASD03331028
#	Creating user name:	WinNT
#	Creation time:	15. 06. 2019 20:38

#	Modifying user name:	WinNT
#	Modification time:	15. 06. 2019 20:38

#	Program:	/corina/corina34_cracker 3.40 0067  02.08.2006

@<TRIPOS>MOLECULE
ASD03331028
  62   64    0    0    0
SMALL
NO_CHARGES


@<TRIPOS>ATOM
   1 N1            -2.1812     1.3076    -3.5834 N.pl3   
   2 C2            -1.7714     0.0596    -3.2312 C.2     
   3 C3            -0.4120    -0.5281    -3.5067 C.3     
   4 N4             0.6213     0.4478    -3.1265 N.3     
   5 C5             0.9436     1.3404    -4.2413 C.3     
   6 C6            -0.2901     1.6120    -5.0974 C.3     
   7 C7            -1.3591     2.3164    -4.2576 C.3     
   8 C8            -3.4791     1.4396    -3.1832 C.2     
   9 N9            -3.8505     0.3276    -2.5928 N.2     
  10 C10           -2.8178    -0.5440    -2.6034 C.2     
  11 C11           -2.8236    -1.9043    -2.0372 C.2     
  12 O12           -1.8267    -2.5973    -2.1094 O.2     
  13 N13           -3.9336    -2.3807    -1.4392 N.am    
  14 C14           -2.7504    -3.8955     0.0730 C.3     
  15 C15           -3.9393    -3.7332    -0.8762 C.3     
  16 C16           -5.2416    -3.9594    -0.1058 C.3     
  17 C17           -5.2590    -3.0698     1.1389 C.3     
  18 C18           -4.7393    -1.6769     0.7774 C.3     
  19 C19           -6.6909    -2.9588     1.6665 C.3     
  20 C20           -4.3643    -3.6840     2.2173 C.3     
  21 C21           -3.8318    -4.7571    -2.0080 C.3     
  22 C22            1.8264    -0.2287    -2.6283 C.3     
  23 C23           -4.3256     2.6356    -3.3813 C.ar    
  24 C24           -5.6239     2.5011    -3.8813 C.ar    
  25 C25           -6.4102     3.6225    -4.0638 C.ar    
  26 C26           -5.9135     4.8774    -3.7525 C.ar    
  27 C27           -4.6256     5.0158    -3.2565 C.ar    
  28 C28           -3.8335     3.9021    -3.0644 C.ar    
  29 F29           -6.6862     5.9708    -3.9331 F       
  30 F30           -6.1087     1.2775    -4.1860 F       
  31 Cl31          -4.0111     6.5928    -2.8702 Cl      
  32 H32           -0.2842    -1.4400    -2.9234 H       
  33 H33           -0.3228    -0.7581    -4.5685 H       
  34 H34            1.3207     2.2841    -3.8470 H       
  35 H35            1.7135     0.8783    -4.8591 H       
  36 H36           -0.0143     2.2469    -5.9394 H       
  37 H37           -0.6867     0.6681    -5.4712 H       
  38 H38           -1.9889     2.9257    -4.9059 H       
  39 H39           -0.8782     2.9513    -3.5134 H       
  40 H40           -4.7286    -1.8280    -1.3815 H       
  41 H41           -2.5626    -2.9517     0.5849 H       
  42 H42           -2.9749    -4.6689     0.8076 H       
  43 H43           -1.8666    -4.1817    -0.4972 H       
  44 H44           -6.0893    -3.7086    -0.7435 H       
  45 H45           -5.3094    -5.0052     0.1941 H       
  46 H46           -5.2880    -1.2967    -0.0843 H       
  47 H47           -4.8815    -1.0051     1.6239 H       
  48 H48           -3.6783    -1.7365     0.5351 H       
  49 H49           -7.0611    -3.9512     1.9240 H       
  50 H50           -6.7033    -2.3250     2.5532 H       
  51 H51           -7.3283    -2.5213     0.8982 H       
  52 H52           -3.3191    -3.4899     1.9761 H       
  53 H53           -4.6027    -3.2396     3.1836 H       
  54 H54           -4.5335    -4.7599     2.2604 H       
  55 H55           -2.8643    -4.6552    -2.4995 H       
  56 H56           -3.9271    -5.7627    -1.5984 H       
  57 H57           -4.6275    -4.5829    -2.7323 H       
  58 H58            2.1875    -0.9290    -3.3815 H       
  59 H59            2.5990     0.5117    -2.4206 H       
  60 H60            1.5870    -0.7705    -1.7134 H       
  61 H61           -7.4136     3.5203    -4.4500 H       
  62 H62           -2.8326     4.0111    -2.6735 H       
@<TRIPOS>BOND
   1    1    2 1
   2    1    7 1
   3    1    8 1
   4    2    3 1
   5    2   10 2
   6    3    4 1
   7    3   32 1
   8    3   33 1
   9    4    5 1
  10    4   22 1
  11    5    6 1
  12    5   34 1
  13    5   35 1
  14    6    7 1
  15    6   36 1
  16    6   37 1
  17    7   38 1
  18    7   39 1
  19    8    9 2
  20    8   23 1
  21    9   10 1
  22   10   11 1
  23   11   12 2
  24   11   13 am
  25   13   15 1
  26   13   40 1
  27   14   15 1
  28   14   41 1
  29   14   42 1
  30   14   43 1
  31   15   16 1
  32   15   21 1
  33   16   17 1
  34   16   44 1
  35   16   45 1
  36   17   18 1
  37   17   19 1
  38   17   20 1
  39   18   46 1
  40   18   47 1
  41   18   48 1
  42   19   49 1
  43   19   50 1
  44   19   51 1
  45   20   52 1
  46   20   53 1
  47   20   54 1
  48   21   55 1
  49   21   56 1
  50   21   57 1
  51   22   58 1
  52   22   59 1
  53   22   60 1
  54   23   24 ar
  55   23   28 ar
  56   24   25 ar
  57   24   30 1
  58   25   26 ar
  59   25   61 1
  60   26   27 ar
  61   26   29 1
  62   27   28 ar
  63   27   31 1
  64   28   62 1

#	End of record

