#	Name: ASD01882922
#	Creating user name:	WinNT
#	Creation time:	15. 06. 2019 19:45

#	Modifying user name:	WinNT
#	Modification time:	15. 06. 2019 19:45

#	Program:	/corina/corina34_cracker 3.40 0067  02.08.2006

@<TRIPOS>MOLECULE
ASD01882922
  57   61    0    0    0
SMALL
NO_CHARGES


@<TRIPOS>ATOM
   1 C1             0.0932     1.4440    -0.4392 C.2     
   2 C2             0.1015     0.0421    -0.5390 C.2     
   3 C3             1.1650    -0.6665    -0.1054 C.2     
   4 C4             2.2666     1.3357     0.5448 C.2     
   5 C5             1.1641     2.0887     0.0972 C.2     
   6 C6             1.1708     3.5914     0.2107 C.3     
   7 N7             4.1019     0.5884     1.3293 N.2     
   8 N8             3.4252     1.6578     1.0966 N.2     
   9 N9             2.2453    -0.0332     0.4350 N.pl3   
  10 C10            3.4302    -0.4661     0.9448 C.2     
  11 C11            3.8856    -1.8990     1.0476 C.3     
  12 C12            3.4408    -2.4803     2.3912 C.3     
  13 C13            3.7062    -3.9663     2.6406 C.3     
  14 C14            4.5340    -2.9080     3.3725 C.3     
  15 F15            0.3861     3.9801     1.3018 F       
  16 F16            2.4830     4.0392     0.3969 F       
  17 F17            0.6494     4.1499    -0.9612 F       
  18 C18           -1.0949     2.2302    -0.9303 C.3     
  19 N19           -0.9521     2.4853    -2.3699 N.3     
  20 C20           -1.0175     1.2923    -3.0998 C.3     
  21 C21           -1.9058     3.5217    -2.8218 C.3     
  22 C22           -0.6725     1.5034    -4.5878 C.3     
  23 C23           -1.3347     4.1981    -4.0425 C.3     
  24 N24           -1.8249     2.0602    -5.2603 N.3     
  25 C25           -1.8120     3.5383    -5.3461 C.3     
  26 C26           -1.9934     1.4857    -6.5257 C.ar    
  27 C27           -3.1653     0.8008    -6.8294 C.ar    
  28 C28           -3.3288     0.2350    -8.0802 C.ar    
  29 C29           -2.3267     0.3502    -9.0293 C.ar    
  30 C30           -1.1601     1.0315    -8.7283 C.ar    
  31 C31           -0.9940     1.6034    -7.4810 C.ar    
  32 F32           -4.1423     0.6882    -5.9031 F       
  33 F33           -2.4881    -0.2038   -10.2509 F       
  34 H34           -0.7482    -0.4710    -0.9647 H       
  35 H35            1.1606    -1.7435    -0.1866 H       
  36 H36            3.4450    -2.4793     0.2369 H       
  37 H37            4.9724    -1.9409     0.9755 H       
  38 H38            2.5279    -2.0552     2.8082 H       
  39 H39            2.9681    -4.5187     3.2220 H       
  40 H40            4.1977    -4.5298     1.8475 H       
  41 H41            5.5700    -2.7752     3.0609 H       
  42 H42            4.3404    -2.7642     4.4355 H       
  43 H43           -2.0068     1.6607    -0.7509 H       
  44 H44           -1.1483     3.1792    -0.3967 H       
  45 H45           -0.3158     0.5763    -2.6717 H       
  46 H46           -2.0260     0.8857    -3.0243 H       
  47 H47           -2.8594     3.0573    -3.0729 H       
  48 H48           -2.0504     4.2565    -2.0298 H       
  49 H49            0.1683     2.1918    -4.6736 H       
  50 H50           -0.4116     0.5472    -5.0414 H       
  51 H51           -1.6400     5.2445    -4.0429 H       
  52 H52           -0.2467     4.1484    -3.9984 H       
  53 H53           -2.8201     3.8875    -5.5696 H       
  54 H54           -1.1487     3.8389    -6.1571 H       
  55 H55           -4.2381    -0.2974    -8.3171 H       
  56 H56           -0.3804     1.1198    -9.4703 H       
  57 H57           -0.0851     2.1386    -7.2489 H       
@<TRIPOS>BOND
   1    1    2 1
   2    1    5 2
   3    1   18 1
   4    2    3 2
   5    2   34 1
   6    3    9 1
   7    3   35 1
   8    4    5 1
   9    4    9 1
  10    4    8 2
  11    5    6 1
  12    6   15 1
  13    6   16 1
  14    6   17 1
  15    7    8 1
  16    7   10 2
  17    9   10 1
  18   10   11 1
  19   11   12 1
  20   11   36 1
  21   11   37 1
  22   12   13 1
  23   12   14 1
  24   12   38 1
  25   13   14 1
  26   13   39 1
  27   13   40 1
  28   14   41 1
  29   14   42 1
  30   18   19 1
  31   18   43 1
  32   18   44 1
  33   19   20 1
  34   19   21 1
  35   20   22 1
  36   20   45 1
  37   20   46 1
  38   21   23 1
  39   21   47 1
  40   21   48 1
  41   22   24 1
  42   22   49 1
  43   22   50 1
  44   23   25 1
  45   23   51 1
  46   23   52 1
  47   24   25 1
  48   24   26 1
  49   25   53 1
  50   25   54 1
  51   26   27 ar
  52   26   31 ar
  53   27   28 ar
  54   27   32 1
  55   28   29 ar
  56   28   55 1
  57   29   30 ar
  58   29   33 1
  59   30   31 ar
  60   30   56 1
  61   31   57 1

#	End of record

