#	Name: ASD03540139
#	Creating user name:	WinNT
#	Creation time:	15. 06. 2019 20:42

#	Modifying user name:	WinNT
#	Modification time:	15. 06. 2019 20:42

#	Program:	/corina/corina34_cracker 3.40 0067  02.08.2006

@<TRIPOS>MOLECULE
ASD03540139
  45   47    0    0    0
SMALL
NO_CHARGES


@<TRIPOS>ATOM
   1 C1            -0.0180     1.4744     0.0101 C.2     
   2 C2             0.0021    -0.0041     0.0020 C.ar    
   3 C3             1.2171    -0.6858    -0.0132 C.ar    
   4 C4             1.2272    -2.0787    -0.0203 C.ar    
   5 C5             2.5119    -2.8104    -0.0360 C.2     
   6 C6             0.0206    -2.7829    -0.0121 C.ar    
   7 C7            -1.1799    -2.1012     0.0030 C.ar    
   8 C8            -1.1968    -0.7203     0.0155 C.ar    
   9 O9             1.0263     2.0964     0.0035 O.2     
  10 N10           -1.1942     2.1323     0.0193 N.am    
  11 O11            3.5609    -2.1964    -0.0428 O.2     
  12 N12            2.5199    -4.1581    -0.0429 N.am    
  13 C13            3.7929    -4.8830    -0.0584 C.3     
  14 C14            3.1455    -8.4187    -1.2220 C.ar    
  15 C15            3.3895    -7.0588    -1.2567 C.ar    
  16 C16            3.5262    -6.3662    -0.0634 C.ar    
  17 C17            3.4123    -7.0708     1.1253 C.ar    
  18 C18            3.1679    -8.4304     1.0815 C.ar    
  19 N19            3.0431    -9.0565    -0.0724 N.ar    
  20 C20           -1.2141     3.5972     0.0274 C.3     
  21 C21           -2.6415     4.0801     0.0368 C.ar    
  22 C22           -3.2903     4.2950     1.2385 C.ar    
  23 C23           -4.6002     4.7387     1.2476 C.ar    
  24 C24           -5.2612     4.9674     0.0524 C.ar    
  25 C25           -4.6107     4.7519    -1.1489 C.ar    
  26 C26           -3.2996     4.3135    -1.1561 C.ar    
  27 Cl27          -6.9056     5.5238     0.0621 Cl      
  28 Cl28          -5.4154     5.0082     2.7564 Cl      
  29 H29            2.1471    -0.1367    -0.0199 H       
  30 H30            0.0269    -3.8628    -0.0180 H       
  31 H31           -2.1098    -2.6503     0.0090 H       
  32 H32           -2.1393    -0.1932     0.0318 H       
  33 H33           -2.0276     1.6360     0.0206 H       
  34 H34            1.6827    -4.6481    -0.0375 H       
  35 H35            4.3545    -4.6118    -0.9524 H       
  36 H36            4.3712    -4.6208     0.8275 H       
  37 H37            3.0333    -8.9646    -2.1471 H       
  38 H38            3.4726    -6.5421    -2.2015 H       
  39 H39            3.5135    -6.5637     2.0734 H       
  40 H40            3.0778    -8.9865     2.0029 H       
  41 H41           -0.7010     3.9626     0.9169 H       
  42 H42           -0.7094     3.9723    -0.8630 H       
  43 H43           -2.7743     4.1161     2.1703 H       
  44 H44           -5.1257     4.9301    -2.0814 H       
  45 H45           -2.7906     4.1492    -2.0944 H       
@<TRIPOS>BOND
   1    1    2 1
   2    1    9 2
   3    1   10 am
   4    2    3 ar
   5    2    8 ar
   6    3    4 ar
   7    3   29 1
   8    4    5 1
   9    4    6 ar
  10    5   11 2
  11    5   12 am
  12    6    7 ar
  13    6   30 1
  14    7    8 ar
  15    7   31 1
  16    8   32 1
  17   10   20 1
  18   10   33 1
  19   12   13 1
  20   12   34 1
  21   13   16 1
  22   13   35 1
  23   13   36 1
  24   14   15 ar
  25   14   19 ar
  26   14   37 1
  27   15   16 ar
  28   15   38 1
  29   16   17 ar
  30   17   18 ar
  31   17   39 1
  32   18   19 ar
  33   18   40 1
  34   20   21 1
  35   20   41 1
  36   20   42 1
  37   21   22 ar
  38   21   26 ar
  39   22   23 ar
  40   22   43 1
  41   23   24 ar
  42   23   28 1
  43   24   25 ar
  44   24   27 1
  45   25   26 ar
  46   25   44 1
  47   26   45 1

#	End of record

