#	Name: ASD04420001
#	Creating user name:	WinNT
#	Creation time:	15. 06. 2019 20:49

#	Modifying user name:	WinNT
#	Modification time:	15. 06. 2019 20:49

#	Program:	/corina/corina34_cracker 3.40 0067  02.08.2006

@<TRIPOS>MOLECULE
ASD04420001
  40   43    0    0    0
SMALL
NO_CHARGES


@<TRIPOS>ATOM
   1 C1            -0.0168     1.3882     0.0097 C.ar    
   2 C2             0.0021    -0.0041     0.0020 C.ar    
   3 C3             1.1808    -0.6881    -0.0129 C.ar    
   4 C4             2.3927     0.0167    -0.0207 C.ar    
   5 C5             2.3754     1.4333    -0.0130 C.ar    
   6 C6             1.1417     2.1047     0.0025 C.ar    
   7 C7             3.6346    -0.6632    -0.0357 C.ar    
   8 C8             4.8205     0.0825    -0.0427 C.ar    
   9 C9             4.7750     1.4855    -0.0348 C.ar    
  10 C10            3.5888     2.1474    -0.0199 C.ar    
  11 C11            3.7399    -2.9219     3.5634 C.ar    
  12 C12            3.7817    -4.3134     3.5331 C.ar    
  13 C13            3.7903    -4.9885     2.3500 C.ar    
  14 C14            3.7557    -4.2746     1.1408 C.ar    
  15 C15            3.7132    -2.8589     1.1736 C.ar    
  16 C16            3.7060    -2.1973     2.4096 C.ar    
  17 C17            3.7641    -4.9453    -0.0972 C.ar    
  18 C18            3.7317    -4.2424    -1.2592 C.ar    
  19 C19            3.6892    -2.8392    -1.2550 C.ar    
  20 C20            3.6791    -2.1360    -0.0434 C.ar    
  21 C21            6.1224    -0.6095    -0.0578 C.2     
  22 O22            6.1649    -1.8238    -0.0642 O.2     
  23 O23            7.2651     0.1048    -0.0645 O.3     
  24 C24            3.6545    -2.1022    -2.5316 C.2     
  25 O25            3.6177    -0.8877    -2.5311 O.2     
  26 O26            3.6637    -2.7757    -3.6989 O.3     
  27 H27           -0.9637     1.9076     0.0170 H       
  28 H28           -0.9301    -0.5494     0.0084 H       
  29 H29            1.1813    -1.7681    -0.0184 H       
  30 H30            1.1118     3.1843     0.0089 H       
  31 H31            5.6974     2.0473    -0.0400 H       
  32 H32            3.5765     3.2273    -0.0145 H       
  33 H33            3.7297    -2.4100     4.5143 H       
  34 H34            3.8081    -4.8654     4.4610 H       
  35 H35            3.8237    -6.0680     2.3417 H       
  36 H36            3.6733    -1.1185     2.4473 H       
  37 H37            3.7974    -6.0245    -0.1231 H       
  38 H38            3.7394    -4.7712    -2.2008 H       
  39 H39            8.0941    -0.3931    -0.0744 H       
  40 H40            3.6399    -2.2492    -4.5096 H       
@<TRIPOS>BOND
   1    1    2 ar
   2    1    6 ar
   3    1   27 1
   4    2    3 ar
   5    2   28 1
   6    3    4 ar
   7    3   29 1
   8    4    5 ar
   9    4    7 ar
  10    5    6 ar
  11    5   10 ar
  12    6   30 1
  13    7    8 ar
  14    7   20 1
  15    8    9 ar
  16    8   21 1
  17    9   10 ar
  18    9   31 1
  19   10   32 1
  20   11   12 ar
  21   11   16 ar
  22   11   33 1
  23   12   13 ar
  24   12   34 1
  25   13   14 ar
  26   13   35 1
  27   14   15 ar
  28   14   17 ar
  29   15   16 ar
  30   15   20 ar
  31   16   36 1
  32   17   18 ar
  33   17   37 1
  34   18   19 ar
  35   18   38 1
  36   19   20 ar
  37   19   24 1
  38   21   22 2
  39   21   23 1
  40   23   39 1
  41   24   25 2
  42   24   26 1
  43   26   40 1

#	End of record

