#	Name: ASD00311006
#	Creating user name:	WinNT
#	Creation time:	15. 06. 2019 18:34

#	Modifying user name:	WinNT
#	Modification time:	15. 06. 2019 18:34

#	Program:	/corina/corina34_cracker 3.40 0067  02.08.2006

@<TRIPOS>MOLECULE
ASD00311006
  32   34    0    0    0
SMALL
NO_CHARGES


@<TRIPOS>ATOM
   1 C1            -0.0158     1.3141     0.0093 C.ar    
   2 N2             0.0021    -0.0041     0.0020 N.ar    
   3 C3             1.1287    -0.6886    -0.0124 C.ar    
   4 C4             2.3502    -0.0441    -0.0206 C.ar    
   5 C5             2.3790     1.3544    -0.0133 C.ar    
   6 C6             1.1595     2.0395     0.0019 C.ar    
   7 C7             3.6717     3.5542    -0.0134 C.2     
   8 C8             3.6652     2.0895    -0.0212 C.2     
   9 C9             6.0797     6.3795    -0.0203 C.ar    
  10 C10            4.8497     5.6967    -0.0127 C.ar    
  11 C11            4.8432     4.2237    -0.0205 C.2     
  12 C12            6.0980     7.7425    -0.0126 C.ar    
  13 C13            4.8666     8.4271     0.0028 C.ar    
  14 C14            3.6596     7.6807     0.0098 C.ar    
  15 N15            3.6997     6.3484     0.0018 N.ar    
  16 O16            4.7159     1.4767    -0.0341 O.2     
  17 C17            4.8137     9.8295     0.0118 C.ar    
  18 C18            3.6058    10.4584     0.0271 C.ar    
  19 C19            2.4183     9.7282     0.0340 C.ar    
  20 C20            2.4307     8.3680     0.0252 C.ar    
  21 H21           -0.9625     1.8339     0.0165 H       
  22 H22            1.0959    -1.7681    -0.0175 H       
  23 H23            3.2691    -0.6113    -0.0320 H       
  24 H24            1.1373     3.1192     0.0076 H       
  25 H25            2.7388     4.0983    -0.0019 H       
  26 H26            7.0068     5.8254    -0.0276 H       
  27 H27            5.7760     3.6796    -0.0320 H       
  28 H28            7.0325     8.2838    -0.0179 H       
  29 H29            5.7262    10.4071     0.0069 H       
  30 H30            3.5674    11.5377     0.0343 H       
  31 H31            1.4733    10.2508     0.0461 H       
  32 H32            1.5016     7.8174     0.0303 H       
@<TRIPOS>BOND
   1    1    2 ar
   2    1    6 ar
   3    1   21 1
   4    2    3 ar
   5    3    4 ar
   6    3   22 1
   7    4    5 ar
   8    4   23 1
   9    5    6 ar
  10    5    8 1
  11    6   24 1
  12    7    8 1
  13    7   11 2
  14    7   25 1
  15    8   16 2
  16    9   10 ar
  17    9   12 ar
  18    9   26 1
  19   10   11 1
  20   10   15 ar
  21   11   27 1
  22   12   13 ar
  23   12   28 1
  24   13   14 ar
  25   13   17 ar
  26   14   15 ar
  27   14   20 ar
  28   17   18 ar
  29   17   29 1
  30   18   19 ar
  31   18   30 1
  32   19   20 ar
  33   19   31 1
  34   20   32 1

#	End of record

