#	Name: ASD05740188
#	Creating user name:	WinNT
#	Creation time:	15. 06. 2019 21:03

#	Modifying user name:	WinNT
#	Modification time:	15. 06. 2019 21:03

#	Program:	/corina/corina34_cracker 3.40 0067  02.08.2006

@<TRIPOS>MOLECULE
ASD05740188
  62   66    0    0    0
SMALL
NO_CHARGES


@<TRIPOS>ATOM
   1 C1            -0.7426     0.1871    -5.0131 C.3     
   2 N2            -1.0815     0.6571    -3.6626 N.3     
   3 C3            -2.2708     0.0731    -3.2122 C.ar    
   4 C4            -2.7657     0.3880    -1.9533 C.ar    
   5 C5            -3.9391    -0.1883    -1.5089 C.ar    
   6 C6            -4.6241    -1.0830    -2.3205 C.ar    
   7 C7            -4.1290    -1.3983    -3.5791 C.ar    
   8 C8            -2.9591    -0.8170    -4.0262 C.ar    
   9 N9            -5.8142    -1.6680    -1.8694 N.pl3   
  10 C10           -6.7163    -0.9214    -1.1368 C.ar    
  11 N11           -6.4841     0.3758    -0.9679 N.ar    
  12 N12           -7.7831    -1.5250    -0.6338 N.ar    
  13 C13           -8.6703    -0.8389     0.0750 C.ar    
  14 C14           -8.4535     0.5416     0.2801 C.ar    
  15 C15           -7.3147     1.1350    -0.2761 C.ar    
  16 N16           -9.7840    -1.4351     0.6079 N.am    
  17 C17          -10.6735    -0.7242     1.3235 C.2     
  18 C18          -10.5057     0.6555     1.5579 C.2     
  19 C19           -9.4228     1.3068     1.0583 C.2     
  20 C20          -10.0085    -2.8669     0.3943 C.3     
  21 O21          -11.6518    -1.2885     1.7818 O.2     
  22 C22            0.0205     0.3975    -2.7257 C.3     
  23 C23            1.2804     1.1174    -3.2122 C.3     
  24 N24            1.6194     0.6474    -4.5627 N.3     
  25 C25            0.5174     0.9070    -5.4996 C.3     
  26 C26           -9.2320    -3.6553     1.4173 C.ar    
  27 C27           -9.0589    -4.6233     3.6122 C.ar    
  28 C28           -7.8039    -5.1046     3.2969 C.ar    
  29 C29           -7.2606    -4.8589     2.0488 C.ar    
  30 C30           -7.9737    -4.1350     1.1109 C.ar    
  31 C31            2.8678     1.2605    -5.0356 C.3     
  32 C32           -9.7788    -3.8956     2.6719 C.ar    
  33 S33          -11.3806    -3.2790     3.0700 S.3     
  34 C34          -11.6247    -3.8477     4.7751 C.3     
  35 F35          -10.6238    -3.3124     5.5930 F       
  36 F36          -12.8771    -3.4247     5.2331 F       
  37 F37          -11.5613    -5.2447     4.8143 F       
  38 H38           -0.5612    -0.8874    -4.9893 H       
  39 H39           -1.5687     0.4019    -5.6909 H       
  40 H40           -2.2326     1.0833    -1.3219 H       
  41 H41           -4.3240     0.0566    -0.5300 H       
  42 H42           -4.6614    -2.0947    -4.2099 H       
  43 H43           -2.5741    -1.0621    -5.0050 H       
  44 H44           -6.0049    -2.5973    -2.0715 H       
  45 H45           -7.1171     2.1879    -0.1390 H       
  46 H46          -11.2398     1.1966     2.1365 H       
  47 H47           -9.2834     2.3636     1.2316 H       
  48 H48          -11.0712    -3.0872     0.4960 H       
  49 H49           -9.6746    -3.1418    -0.6063 H       
  50 H50           -0.2494     0.7656    -1.7359 H       
  51 H51            0.2106    -0.6747    -2.6760 H       
  52 H52            1.0990     2.1919    -3.2360 H       
  53 H53            2.1066     0.9027    -2.5344 H       
  54 H54            0.7872     0.5389    -6.4894 H       
  55 H55            0.3273     1.9792    -5.5493 H       
  56 H56           -9.4826    -4.8158     4.5868 H       
  57 H57           -7.2440    -5.6700     4.0271 H       
  58 H58           -6.2786    -5.2366     1.8049 H       
  59 H59           -7.5462    -3.9448     0.1375 H       
  60 H60            3.6810     0.9967    -4.3594 H       
  61 H61            3.0952     0.8955    -6.0371 H       
  62 H62            2.7536     2.3442    -5.0611 H       
@<TRIPOS>BOND
   1    1    2 1
   2    1   25 1
   3    1   38 1
   4    1   39 1
   5    2    3 1
   6    2   22 1
   7    3    4 ar
   8    3    8 ar
   9    4    5 ar
  10    4   40 1
  11    5    6 ar
  12    5   41 1
  13    6    7 ar
  14    6    9 1
  15    7    8 ar
  16    7   42 1
  17    8   43 1
  18    9   10 1
  19    9   44 1
  20   10   11 ar
  21   10   12 ar
  22   11   15 ar
  23   12   13 ar
  24   13   14 ar
  25   13   16 1
  26   14   15 ar
  27   14   19 1
  28   15   45 1
  29   16   17 am
  30   16   20 1
  31   17   18 1
  32   17   21 2
  33   18   19 2
  34   18   46 1
  35   19   47 1
  36   20   26 1
  37   20   48 1
  38   20   49 1
  39   22   23 1
  40   22   50 1
  41   22   51 1
  42   23   24 1
  43   23   52 1
  44   23   53 1
  45   24   25 1
  46   24   31 1
  47   25   54 1
  48   25   55 1
  49   26   30 ar
  50   26   32 ar
  51   27   28 ar
  52   27   32 ar
  53   27   56 1
  54   28   29 ar
  55   28   57 1
  56   29   30 ar
  57   29   58 1
  58   30   59 1
  59   31   60 1
  60   31   61 1
  61   31   62 1
  62   32   33 1
  63   33   34 1
  64   34   35 1
  65   34   36 1
  66   34   37 1

#	End of record

