#	Name: ASD01141011
#	Creating user name:	WinNT
#	Creation time:	15. 06. 2019 19:01

#	Modifying user name:	WinNT
#	Modification time:	15. 06. 2019 19:01

#	Program:	/corina/corina34_cracker 3.40 0067  02.08.2006

@<TRIPOS>MOLECULE
ASD01141011
  58   60    0    0    0
SMALL
NO_CHARGES


@<TRIPOS>ATOM
   1 C1            -0.0183     1.4973     0.0103 C.2     
   2 C2             0.0021    -0.0041     0.0020 C.3     
   3 C3             1.3499    -0.5166    -0.5104 C.3     
   4 C4             2.4691     0.2089     0.2509 C.3     
   5 N5             2.3291     1.6476    -0.0206 N.am    
   6 N6             1.0493     2.2175     0.0039 N.2     
   7 S7             3.6598     2.5769    -0.3494 S.o2    
   8 O8             3.3491     3.8921     0.0899 O.2     
   9 O9             4.7850     1.8465     0.1191 O.2     
  10 C10            3.8164     2.6619    -2.1024 C.ar    
  11 C11            3.1901     3.6749    -2.8040 C.ar    
  12 C12            3.3130     3.7416    -4.1792 C.ar    
  13 C13            4.0625     2.7953    -4.8528 C.ar    
  14 C14            4.6896     1.7828    -4.1511 C.ar    
  15 C15            4.5703     1.7187    -2.7754 C.ar    
  16 C16            4.1957     2.8674    -6.3522 C.3     
  17 C17            5.4139     3.7186    -6.7157 C.3     
  18 C18            5.5491     3.7918    -8.2380 C.3     
  19 C19            6.7673     4.6431    -8.6015 C.3     
  20 C20           -1.3252     2.1809     0.0201 C.ar    
  21 C21           -1.3872     3.5763     0.0279 C.ar    
  22 C22           -2.6129     4.2088     0.0366 C.ar    
  23 C23           -3.7793     3.4644     0.0379 C.ar    
  24 C24           -3.7255     2.0818     0.0306 C.ar    
  25 C25           -2.5068     1.4359     0.0156 C.ar    
  26 C26           -5.1147     4.1629     0.0479 C.3     
  27 C27           -5.9066     3.7669    -1.1999 C.3     
  28 C28           -5.8951     3.7533     1.2985 C.3     
  29 H29           -0.1623    -0.3724     1.0146 H       
  30 H30           -0.7935    -0.3719    -0.6460 H       
  31 H31            1.4241    -1.5899    -0.3353 H       
  32 H32            1.4389    -0.3097    -1.5769 H       
  33 H33            2.3700     0.0228     1.3203 H       
  34 H34            3.4408    -0.1407    -0.0979 H       
  35 H35            2.6045     4.4142    -2.2777 H       
  36 H36            2.8231     4.5327    -4.7275 H       
  37 H37            5.2749     1.0433    -4.6774 H       
  38 H38            5.0632     0.9297    -2.2268 H       
  39 H39            4.3217     1.8622    -6.7545 H       
  40 H40            3.2981     3.3182    -6.7754 H       
  41 H41            5.2879     4.7238    -6.3134 H       
  42 H42            6.3115     3.2678    -6.2925 H       
  43 H43            5.6751     2.7866    -8.6403 H       
  44 H44            4.6515     4.2426    -8.6612 H       
  45 H45            7.6649     4.1922    -8.1783 H       
  46 H46            6.8636     4.6952    -9.6860 H       
  47 H47            6.6413     5.6482    -8.1992 H       
  48 H48           -0.4776     4.1585     0.0276 H       
  49 H49           -2.6624     5.2877     0.0427 H       
  50 H50           -4.6398     1.5071     0.0321 H       
  51 H51           -2.4662     0.3567     0.0054 H       
  52 H52           -4.9603     5.2419     0.0530 H       
  53 H53           -6.0610     2.6879    -1.2050 H       
  54 H54           -6.8725     4.2721    -1.1927 H       
  55 H55           -5.3506     4.0587    -2.0909 H       
  56 H56           -5.3309     4.0354     2.1875 H       
  57 H57           -6.8609     4.2585     1.3058 H       
  58 H58           -6.0494     2.6743     1.2934 H       
@<TRIPOS>BOND
   1    1    2 1
   2    1    6 2
   3    1   20 1
   4    2    3 1
   5    2   29 1
   6    2   30 1
   7    3    4 1
   8    3   31 1
   9    3   32 1
  10    4    5 1
  11    4   33 1
  12    4   34 1
  13    5    6 1
  14    5    7 am
  15    7    8 2
  16    7    9 2
  17    7   10 1
  18   10   11 ar
  19   10   15 ar
  20   11   12 ar
  21   11   35 1
  22   12   13 ar
  23   12   36 1
  24   13   14 ar
  25   13   16 1
  26   14   15 ar
  27   14   37 1
  28   15   38 1
  29   16   17 1
  30   16   39 1
  31   16   40 1
  32   17   18 1
  33   17   41 1
  34   17   42 1
  35   18   19 1
  36   18   43 1
  37   18   44 1
  38   19   45 1
  39   19   46 1
  40   19   47 1
  41   20   21 ar
  42   20   25 ar
  43   21   22 ar
  44   21   48 1
  45   22   23 ar
  46   22   49 1
  47   23   24 ar
  48   23   26 1
  49   24   25 ar
  50   24   50 1
  51   25   51 1
  52   26   27 1
  53   26   28 1
  54   26   52 1
  55   27   53 1
  56   27   54 1
  57   27   55 1
  58   28   56 1
  59   28   57 1
  60   28   58 1

#	End of record

