#	Name: ASD03430280
#	Creating user name:	WinNT
#	Creation time:	15. 06. 2019 20:40

#	Modifying user name:	WinNT
#	Modification time:	15. 06. 2019 20:40

#	Program:	/corina/corina34_cracker 3.40 0067  02.08.2006

@<TRIPOS>MOLECULE
ASD03430280
  70   75    0    0    0
SMALL
NO_CHARGES


@<TRIPOS>ATOM
   1 C1            -0.0169     1.3780     0.0221 C.ar    
   2 C2             0.0017    -0.0039     0.0169 C.ar    
   3 C3             1.2020    -0.6814    -0.0063 C.ar    
   4 C4             2.4087     0.0135    -0.0133 C.ar    
   5 C5             2.3854     1.4045    -0.0130 C.ar    
   6 C6             1.1788     2.0825     0.0043 C.ar    
   7 O7             3.4706    -0.8407    -0.0069 O.3     
   8 C8             1.5504    -2.1452    -0.0426 C.3     
   9 C9             3.0341    -2.1447    -0.4363 C.3     
  10 C10            0.4312    -3.8607     1.0181 C.ar    
  11 C11            1.3214    -2.8210     1.2765 C.ar    
  12 C12            0.7119    -2.9050    -1.0301 C.2     
  13 N13            0.0948    -3.8828    -0.3374 N.am    
  14 O14            0.6097    -2.6821    -2.2179 O.2     
  15 C15            1.7942    -2.6045     2.5512 C.ar    
  16 C16            1.3864    -3.4226     3.5902 C.ar    
  17 C17            0.5032    -4.4577     3.3450 C.ar    
  18 C18            0.0265    -4.6789     2.0694 C.ar    
  19 C19           -0.8218    -4.8559    -0.9367 C.3     
  20 C20           -2.2288    -4.3186    -0.8851 C.2     
  21 C21           -2.8208    -3.5713    -1.8341 C.2     
  22 C22           -4.1292    -3.2909    -1.3777 C.2     
  23 C23           -4.2586    -3.8836    -0.1771 C.2     
  24 O24           -3.1063    -4.5094     0.1135 O.3     
  25 O25            1.1649     3.4414     0.0038 O.3     
  26 C26           -0.1110     4.0770    -0.0972 C.3     
  27 C27           -0.7619     4.2407     1.2989 C.3     
  28 C28            0.0378     5.5546    -0.5467 C.3     
  29 C29           -1.2226     6.2233     0.0411 C.3     
  30 N30           -1.6854     5.3806     1.1534 N.am    
  31 O31           -3.5414     6.6929     1.6799 O.3     
  32 C32           -4.6981     6.8783     2.5378 C.3     
  33 C33           -4.2394     7.0064     3.9918 C.3     
  34 C34           -5.4415     8.1498     2.1237 C.3     
  35 C35           -5.6322     5.6742     2.4019 C.3     
  36 C36           -2.7741     5.6115     1.9137 C.2     
  37 O37           -3.0631     4.8438     2.8101 O.2     
  38 C38           -5.4895    -3.8549     0.6918 C.3     
  39 F39           -6.3111    -4.9413     0.3726 F       
  40 F40           -5.1128    -3.9345     2.0368 F       
  41 F41           -6.1873    -2.6623     0.4728 F       
  42 H42           -0.9580     1.9075     0.0355 H       
  43 H43           -0.9272    -0.5548     0.0313 H       
  44 H44            3.3129     1.9578    -0.0259 H       
  45 H45            3.1484    -2.2555    -1.5146 H       
  46 H46            3.5755    -2.9282     0.0940 H       
  47 H47            2.4843    -1.7955     2.7404 H       
  48 H48            1.7575    -3.2531     4.5902 H       
  49 H49            0.1853    -5.0963     4.1558 H       
  50 H50           -0.6630    -5.4895     1.8857 H       
  51 H51           -0.5378    -5.0315    -1.9743 H       
  52 H52           -0.7702    -5.7929    -0.3823 H       
  53 H53           -2.3808    -3.2472    -2.7656 H       
  54 H54           -4.8806    -2.7117    -1.8938 H       
  55 H55           -0.7669     3.5269    -0.7720 H       
  56 H56           -1.3117     3.3392     1.5692 H       
  57 H57           -0.0018     4.4616     2.0483 H       
  58 H58            0.9409     5.9967    -0.1257 H       
  59 H59            0.0420     5.6283    -1.6342 H       
  60 H60           -0.9766     7.2197     0.4084 H       
  61 H61           -1.9980     6.2883    -0.7222 H       
  62 H62           -3.5739     7.8642     4.0886 H       
  63 H63           -5.1077     7.1456     4.6358 H       
  64 H64           -3.7097     6.1005     4.2868 H       
  65 H65           -5.7683     8.0586     1.0879 H       
  66 H66           -6.3098     8.2891     2.7677 H       
  67 H67           -4.7761     9.0077     2.2205 H       
  68 H68           -5.1025     4.7684     2.6969 H       
  69 H69           -6.5005     5.8134     3.0459 H       
  70 H70           -5.9590     5.5830     1.3660 H       
@<TRIPOS>BOND
   1    1    2 ar
   2    1    6 ar
   3    1   42 1
   4    2    3 ar
   5    2   43 1
   6    3    4 ar
   7    3    8 1
   8    4    5 ar
   9    4    7 1
  10    5    6 ar
  11    5   44 1
  12    6   25 1
  13    7    9 1
  14    8    9 1
  15    8   11 1
  16    8   12 1
  17    9   45 1
  18    9   46 1
  19   10   11 ar
  20   10   13 1
  21   10   18 ar
  22   11   15 ar
  23   12   13 am
  24   12   14 2
  25   13   19 1
  26   15   16 ar
  27   15   47 1
  28   16   17 ar
  29   16   48 1
  30   17   18 ar
  31   17   49 1
  32   18   50 1
  33   19   20 1
  34   19   51 1
  35   19   52 1
  36   20   21 2
  37   20   24 1
  38   21   22 1
  39   21   53 1
  40   22   23 2
  41   22   54 1
  42   23   24 1
  43   23   38 1
  44   25   26 1
  45   26   27 1
  46   26   28 1
  47   26   55 1
  48   27   30 1
  49   27   56 1
  50   27   57 1
  51   28   29 1
  52   28   58 1
  53   28   59 1
  54   29   30 1
  55   29   60 1
  56   29   61 1
  57   30   36 am
  58   31   32 1
  59   31   36 1
  60   32   33 1
  61   32   34 1
  62   32   35 1
  63   33   62 1
  64   33   63 1
  65   33   64 1
  66   34   65 1
  67   34   66 1
  68   34   67 1
  69   35   68 1
  70   35   69 1
  71   35   70 1
  72   36   37 2
  73   38   39 1
  74   38   40 1
  75   38   41 1

#	End of record

