#	Name: ASD01914262
#	Creating user name:	WinNT
#	Creation time:	15. 06. 2019 20:03

#	Modifying user name:	WinNT
#	Modification time:	15. 06. 2019 20:03

#	Program:	/corina/corina34_cracker 3.40 0067  02.08.2006

@<TRIPOS>MOLECULE
ASD01914262
  36   38    0    0    0
SMALL
NO_CHARGES


@<TRIPOS>ATOM
   1 C1            -0.0169     1.3979     0.0097 C.ar    
   2 C2             0.0021    -0.0041     0.0020 C.ar    
   3 C3             1.2287    -0.6596    -0.0132 C.ar    
   4 C4             2.3858     0.1039    -0.0201 C.ar    
   5 C5             2.2909     1.4841    -0.0118 C.ar    
   6 N6             1.1190     2.0852     0.0026 N.ar    
   7 N7            -1.1889    -0.7290     0.0099 N.pl3   
   8 C8             3.5492     2.3134    -0.0193 C.3     
   9 C9            -1.2691     2.0927     0.0194 C.1     
  10 C10           -2.2956     2.6622     0.0273 C.1     
  11 C11           -3.5827     3.3764     0.0373 C.3     
  12 C12           -3.3288     4.8852     0.0443 C.3     
  13 N13           -5.2279     5.9359     1.1313 N.2     
  14 N14           -4.6098     5.5959     0.0542 N.pl3   
  15 N15           -5.2377     5.9482    -1.0132 N.2     
  16 C16           -6.3548     6.5677    -0.6676 C.ar    
  17 C17           -6.3481     6.5593     0.8029 C.ar    
  18 C18           -7.4226     7.1532     1.4881 C.ar    
  19 C19           -8.4362     7.7179     0.7815 C.ar    
  20 C20           -8.4428     7.7255    -0.6138 C.ar    
  21 C21           -7.4354     7.1694    -1.3360 C.ar    
  22 H22            1.2786    -1.7385    -0.0191 H       
  23 H23            3.3538    -0.3749    -0.0316 H       
  24 H24           -2.0399    -0.2637     0.0209 H       
  25 H25           -1.1664    -1.6988     0.0045 H       
  26 H26            3.8427     2.5189    -1.0488 H       
  27 H27            3.3677     3.2537     0.5013 H       
  28 H28            4.3472     1.7676     0.4840 H       
  29 H29           -4.1539     3.1082    -0.8515 H       
  30 H30           -4.1455     3.0985     0.9284 H       
  31 H31           -2.7576     5.1533     0.9331 H       
  32 H32           -2.7660     5.1630    -0.8468 H       
  33 H33           -7.4421     7.1602     2.5679 H       
  34 H34           -9.2587     8.1725     1.3137 H       
  35 H35           -9.2702     8.1859    -1.1332 H       
  36 H36           -7.4646     7.1892    -2.4155 H       
@<TRIPOS>BOND
   1    1    2 ar
   2    1    6 ar
   3    1    9 1
   4    2    3 ar
   5    2    7 1
   6    3    4 ar
   7    3   22 1
   8    4    5 ar
   9    4   23 1
  10    5    6 ar
  11    5    8 1
  12    7   24 1
  13    7   25 1
  14    8   26 1
  15    8   27 1
  16    8   28 1
  17    9   10 3
  18   10   11 1
  19   11   12 1
  20   11   29 1
  21   11   30 1
  22   12   14 1
  23   12   31 1
  24   12   32 1
  25   13   14 1
  26   13   17 2
  27   14   15 1
  28   15   16 2
  29   16   17 ar
  30   16   21 ar
  31   17   18 ar
  32   18   19 ar
  33   18   33 1
  34   19   20 ar
  35   19   34 1
  36   20   21 ar
  37   20   35 1
  38   21   36 1

#	End of record

