#	Name: ASD01830014
#	Creating user name:	WinNT
#	Creation time:	15. 06. 2019 19:36

#	Modifying user name:	WinNT
#	Modification time:	15. 06. 2019 19:36

#	Program:	/corina/corina34_cracker 3.40 0067  02.08.2006

@<TRIPOS>MOLECULE
ASD01830014
  53   59    0    0    0
SMALL
NO_CHARGES


@<TRIPOS>ATOM
   1 N1            -0.0162     1.3442     0.0094 N.am    
   2 C2             0.0021    -0.0041     0.0020 C.2     
   3 C3            -1.1934    -0.7802     0.4757 C.3     
   4 C4            -2.1039    -0.0194     1.4377 C.3     
   5 C5            -1.7212     1.4323     1.5571 C.3     
   6 C6            -1.3304     2.0289     0.2159 C.3     
   7 C7            -2.6002     2.3280     2.3800 C.3     
   8 C8            -1.7971     3.6102     2.6650 C.3     
   9 C9            -1.6026     4.3309     1.3476 C.3     
  10 C10           -1.0117     3.5082     0.2250 C.3     
  11 C11            0.9888     2.2810     0.0049 C.ar    
  12 C12            0.4889     3.5801     0.1535 C.ar    
  13 C13            1.3162     4.6855     0.2054 C.ar    
  14 C14            2.6825     4.4626     0.0883 C.ar    
  15 C15            3.1886     3.1892    -0.0742 C.ar    
  16 C16            2.3684     2.0750    -0.1199 C.ar    
  17 O17            0.9878    -0.5925    -0.3892 O.2     
  18 N18           -2.8652     4.9003     0.8608 N.4     
  19 C19           -3.8399     2.7064     1.6141 C.2     
  20 C20           -4.0072     4.0069     0.9170 C.3     
  21 C21           -1.5548     4.1892    -1.0594 C.3     
  22 O22           -3.4586    -0.1659     0.9982 O.3     
  23 C23           -4.7481     1.7707     1.4573 C.2     
  24 C24           -4.4463     0.3619     1.8884 C.3     
  25 H25           -0.7838     1.4127     2.1129 H       
  26 H26           -2.8632     1.8357     3.3162 H       
  27 H27           -2.0214    -0.4783     2.4229 H       
  28 H28           -2.0487     1.7685    -0.5615 H       
  29 H29           -0.9287     5.1683     1.5282 H       
  30 C30           -2.6339     5.1756    -0.5854 C.3     
  31 C31           -3.1650     6.1443     1.5823 C.3     
  32 C32           -4.4321     6.7059     1.0864 C.1     
  33 C33           -5.4427     7.1538     0.6910 C.1     
  34 H34           -1.7801    -1.0755    -0.3941 H       
  35 H35           -0.8429    -1.6840     0.9741 H       
  36 H36           -2.3494     4.2464     3.3566 H       
  37 H37           -0.8280     3.3523     3.0921 H       
  38 H38            0.9174     5.6813     0.3314 H       
  39 H39            3.3614     5.3018     0.1249 H       
  40 H40            4.2564     3.0578    -0.1682 H       
  41 H41            2.7773     1.0836    -0.2478 H       
  42 H42           -4.8236     4.5415     1.4024 H       
  43 H43           -4.3159     3.7976    -0.1072 H       
  44 H44           -0.7535     4.7246    -1.5688 H       
  45 H45           -1.9921     3.4441    -1.7240 H       
  46 H46           -5.7061     2.0116     1.0208 H       
  47 H47           -5.3519    -0.2424     1.8350 H       
  48 H48           -4.0616     0.3623     2.9082 H       
  49 H49           -3.5550     5.0181    -1.1466 H       
  50 H50           -2.2866     6.2002    -0.7187 H       
  51 H51           -3.2533     5.9339     2.6481 H       
  52 H52           -2.3610     6.8618     1.4189 H       
  53 H53           -6.3465     7.5544     0.3373 H       
@<TRIPOS>BOND
   1    1    2 am
   2    1   11 1
   3    1    6 1
   4    2    3 1
   5    2   17 2
   6    3    4 1
   7    3   34 1
   8    3   35 1
   9    4    5 1
  10    4   22 1
  11    4   27 1
  12    5    6 1
  13    5   25 1
  14    5    7 1
  15    6   10 1
  16    6   28 1
  17    7    8 1
  18    7   19 1
  19    7   26 1
  20    8    9 1
  21    8   36 1
  22    8   37 1
  23    9   10 1
  24    9   18 1
  25    9   29 1
  26   10   21 1
  27   10   12 1
  28   11   12 ar
  29   11   16 ar
  30   12   13 ar
  31   13   14 ar
  32   13   38 1
  33   14   15 ar
  34   14   39 1
  35   15   16 ar
  36   15   40 1
  37   16   41 1
  38   18   20 1
  39   18   30 1
  40   18   31 1
  41   19   23 2
  42   19   20 1
  43   20   42 1
  44   20   43 1
  45   21   30 1
  46   21   44 1
  47   21   45 1
  48   22   24 1
  49   23   24 1
  50   23   46 1
  51   24   47 1
  52   24   48 1
  53   30   49 1
  54   30   50 1
  55   31   32 1
  56   31   51 1
  57   31   52 1
  58   32   33 3
  59   33   53 1

#	End of record

