#	Name: ASD01810504
#	Creating user name:	WinNT
#	Creation time:	15. 06. 2019 19:24

#	Modifying user name:	WinNT
#	Modification time:	15. 06. 2019 19:24

#	Program:	/corina/corina34_cracker 3.40 0067  02.08.2006

@<TRIPOS>MOLECULE
ASD01810504
  76   78    0    0    0
SMALL
NO_CHARGES


@<TRIPOS>ATOM
   1 C1            -0.0448     1.4277     0.1063 C.ar    
   2 C2            -0.0092     0.0383     0.0940 C.ar    
   3 C3            -1.1785    -0.6961     0.0633 C.ar    
   4 C4            -2.4138    -0.0490     0.0446 C.ar    
   5 C5            -2.4457     1.3545     0.0687 C.ar    
   6 C6            -1.2549     2.0880     0.0997 C.ar    
   7 N7            -3.5713    -0.8074    -0.0073 N.3     
   8 C8            -4.7466    -0.1347     0.5476 C.3     
   9 C9            -4.9704     1.1970    -0.1835 C.3     
  10 C10           -3.7424     2.0513     0.0763 C.2     
  11 C11           -3.3698    -2.1195     0.6218 C.3     
  12 C12           -4.7082    -2.7466     0.9156 C.ar    
  13 C13           -5.3169    -3.5512    -0.0295 C.ar    
  14 C14           -6.5446    -4.1264     0.2400 C.ar    
  15 C15           -7.1635    -3.8975     1.4547 C.ar    
  16 C16           -6.5544    -3.0936     2.4001 C.ar    
  17 C17           -5.3247    -2.5219     2.1323 C.ar    
  18 F18           -1.1255    -2.0460     0.0508 F       
  19 Cl19           1.5205    -0.7822     0.1170 Cl      
  20 F20            1.1078     2.1320     0.1304 F       
  21 O21           -3.8255     3.2445     0.2797 O.2     
  22 C22           -5.1247     0.9530    -1.6626 C.2     
  23 N23           -5.3312     1.9898    -2.4987 N.am    
  24 O24           -5.0631    -0.1763    -2.1006 O.2     
  25 C25           -6.4461     5.2145    -9.0006 C.3     
  26 C26           -6.5969     4.9762   -10.4454 C.1     
  27 C27           -6.7171     4.7862   -11.5976 C.1     
  28 C28           -6.8679     4.5479   -13.0424 C.3     
  29 O29           -7.0754     5.7934   -13.7115 O.3     
  30 C30           -7.2336     5.7503   -15.0538 C.2     
  31 N31           -7.2142     4.6958   -15.7745 N.2     
  32 C32           -7.4705     6.9452   -15.9576 C.3     
  33 C33           -7.1755     6.3660   -17.3621 C.3     
  34 O34           -7.4146     4.9584   -17.1492 O.3     
  35 N35           -6.2328     3.9341    -8.3128 N.4     
  36 C36           -7.3861     3.0547    -8.5463 C.3     
  37 C37           -5.0166     3.2954    -8.8332 C.3     
  38 C38           -5.4813     1.7526    -3.9365 C.3     
  39 C39           -5.7035     3.0861    -4.6529 C.3     
  40 C40           -5.8602     2.8384    -6.1546 C.3     
  41 C41           -6.0823     4.1720    -6.8710 C.3     
  42 H42           -1.2834     3.1675     0.1097 H       
  43 H43           -5.6227    -0.7705     0.4202 H       
  44 H44           -4.5882     0.0562     1.6090 H       
  45 H45           -5.8587     1.6925     0.2082 H       
  46 H46           -2.8071    -2.7637    -0.0538 H       
  47 H47           -2.8148    -1.9952     1.5516 H       
  48 H48           -4.8334    -3.7301    -0.9785 H       
  49 H49           -7.0205    -4.7544    -0.4986 H       
  50 H50           -8.1231    -4.3463     1.6649 H       
  51 H51           -7.0381    -2.9145     3.3490 H       
  52 H52           -4.8488    -1.8939     2.8709 H       
  53 H53           -5.3805     2.8929    -2.1484 H       
  54 H54           -5.5904     5.8670    -8.8274 H       
  55 H55           -7.3485     5.6885    -8.6145 H       
  56 H56           -5.9655     4.0739   -13.4285 H       
  57 H57           -7.7236     3.8953   -13.2156 H       
  58 H58           -8.5040     7.2844   -15.8879 H       
  59 H59           -6.7796     7.7539   -15.7193 H       
  60 H60           -7.8646     6.7697   -18.1039 H       
  61 H61           -6.1408     6.5499   -17.6513 H       
  62 H62           -8.2885     3.5287    -8.1601 H       
  63 H63           -7.4977     2.8783    -9.6161 H       
  64 H64           -7.2278     2.1047    -8.0359 H       
  65 H65           -4.8583     2.3453    -8.3229 H       
  66 H66           -5.1283     3.1189    -9.9031 H       
  67 H67           -4.1609     3.9479    -8.6600 H       
  68 H68           -4.5789     1.2786    -4.3227 H       
  69 H69           -6.3370     1.1001    -4.1098 H       
  70 H70           -6.6059     3.5601    -4.2668 H       
  71 H71           -4.8477     3.7386    -4.4797 H       
  72 H72           -4.9578     2.3645    -6.5408 H       
  73 H73           -6.7159     2.1859    -6.3279 H       
  74 H74           -5.2266     4.8245    -6.6977 H       
  75 H75           -6.9847     4.6459    -6.4848 H       
  76 Br76           6.5205    12.7539     8.3490 Br      
@<TRIPOS>BOND
   1    1    2 ar
   2    1   20 1
   3    1    6 ar
   4    2    3 ar
   5    2   19 1
   6    3    4 ar
   7    3   18 1
   8    4    5 ar
   9    4    7 1
  10    5    6 ar
  11    5   10 1
  12    6   42 1
  13    7    8 1
  14    7   11 1
  15    8    9 1
  16    8   43 1
  17    8   44 1
  18    9   10 1
  19    9   22 1
  20    9   45 1
  21   10   21 2
  22   11   12 1
  23   11   46 1
  24   11   47 1
  25   12   13 ar
  26   12   17 ar
  27   13   14 ar
  28   13   48 1
  29   14   15 ar
  30   14   49 1
  31   15   16 ar
  32   15   50 1
  33   16   17 ar
  34   16   51 1
  35   17   52 1
  36   22   23 am
  37   22   24 2
  38   23   38 1
  39   23   53 1
  40   25   26 1
  41   25   35 1
  42   25   54 1
  43   25   55 1
  44   26   27 3
  45   27   28 1
  46   28   29 1
  47   28   56 1
  48   28   57 1
  49   29   30 1
  50   30   31 2
  51   30   32 1
  52   31   34 1
  53   32   33 1
  54   32   58 1
  55   32   59 1
  56   33   34 1
  57   33   60 1
  58   33   61 1
  59   35   41 1
  60   35   36 1
  61   35   37 1
  62   36   62 1
  63   36   63 1
  64   36   64 1
  65   37   65 1
  66   37   66 1
  67   37   67 1
  68   38   39 1
  69   38   68 1
  70   38   69 1
  71   39   40 1
  72   39   70 1
  73   39   71 1
  74   40   41 1
  75   40   72 1
  76   40   73 1
  77   41   74 1
  78   41   75 1

#	End of record

