#	Name: ASD01890024
#	Creating user name:	WinNT
#	Creation time:	15. 06. 2019 19:50

#	Modifying user name:	WinNT
#	Modification time:	15. 06. 2019 19:50

#	Program:	/corina/corina34_cracker 3.40 0067  02.08.2006

@<TRIPOS>MOLECULE
ASD01890024
 117  119    0    0    0
SMALL
NO_CHARGES


@<TRIPOS>ATOM
   1 C1            -0.0184     1.5028     0.0103 C.3     
   2 C2             0.0021    -0.0041     0.0020 C.2     
   3 N3             0.2248    -0.6813     1.1458 N.am    
   4 C4             0.2447    -2.1461     1.1377 C.3     
   5 C5             1.0775    -2.6436     2.2910 C.2     
   6 N6             1.2386    -3.9677     2.4841 N.am    
   7 C7             1.4170     2.0324    -0.0006 C.3     
   8 N8            -0.7289     1.9894    -1.1798 N.3     
   9 C9             1.3994     3.5564     0.1335 C.3     
  10 C10            2.8348     4.0859     0.1227 C.3     
  11 N11            2.8179     5.5452     0.2511 N.pl3   
  12 C12            3.9996     6.2478     0.2654 C.2     
  13 N13            3.9837     7.6172     0.3859 N.pl3   
  14 N14            5.1349     5.6155     0.1649 N.2     
  15 O15           -0.1819    -0.6073    -1.0339 O.2     
  16 C16           -1.1840    -2.6763     1.2743 C.3     
  17 C17           -1.9844    -2.2818     0.0599 C.ar    
  18 C18           -2.0266    -3.1165    -1.0412 C.ar    
  19 C19           -2.7608    -2.7545    -2.1552 C.ar    
  20 C20           -3.4531    -1.5581    -2.1679 C.ar    
  21 C21           -3.4116    -0.7239    -1.0664 C.ar    
  22 C22           -2.6810    -1.0878     0.0492 C.ar    
  23 O23            1.6027    -1.8524     3.0454 O.2     
  24 C24            2.0481    -4.4512     3.6053 C.3     
  25 C25            1.1957    -4.5202     4.8472 C.2     
  26 N26            0.5605    -5.6574     5.1655 N.am    
  27 C27            0.7808    -6.9851     4.5677 C.3     
  28 C28            1.4420    -6.8474     3.2037 C.3     
  29 C29            2.5912    -5.8426     3.2783 C.3     
  30 C30           -0.5268    -5.8195     6.1435 C.3     
  31 C31           -1.3580    -7.0369     5.6912 C.3     
  32 C32           -0.6461    -7.5595     4.4200 C.3     
  33 O33            1.0847    -3.5451     5.5598 O.2     
  34 C34           -1.3905    -4.5847     6.1626 C.2     
  35 O35           -1.1311    -3.6519     5.4324 O.2     
  36 N36           -2.4513    -4.5171     6.9913 N.am    
  37 C37           -3.2909    -3.3167     7.0099 C.3     
  38 C38           -2.6757    -2.2785     7.9504 C.3     
  39 C39           -4.6719    -3.6771     7.4938 C.2     
  40 C40           -1.3269    -1.8204     7.3920 C.3     
  41 N41           -5.6208    -2.7252     7.5934 N.am    
  42 O42           -4.9294    -4.8237     7.7937 O.2     
  43 C43           -6.9632    -3.0755     8.0638 C.3     
  44 C44           -7.6196    -1.8578     8.6617 C.2     
  45 C45           -7.8005    -3.5801     6.8869 C.3     
  46 O46           -7.0246    -0.8014     8.6919 O.2     
  47 N47           -8.8678    -1.9428     9.1629 N.am    
  48 C48           -7.2031    -4.8859     6.3588 C.3     
  49 C49           -7.3185    -5.9703     7.4320 C.3     
  50 C50           -7.9641    -5.3250     5.1062 C.3     
  51 C51           -9.5059    -0.7590     9.7442 C.3     
  52 C52          -11.0037    -0.9051     9.6636 C.2     
  53 C53           -9.0852    -0.6201    11.2086 C.3     
  54 O54          -11.4902    -1.9000     9.1692 O.2     
  55 N55          -11.8025     0.0699    10.1408 N.am    
  56 C56           -0.7209    -0.7978     8.3184 C.2     
  57 O57           -1.3076    -0.4692     9.3222 O.2     
  58 O58            0.4707    -0.2521     8.0283 O.3     
  59 H59           -0.5286     1.8543     0.9071 H       
  60 H60            0.3720    -0.1988     1.9743 H       
  61 H61            0.6750    -2.4985     0.2003 H       
  62 H62            0.8186    -4.6004     1.8808 H       
  63 H63            1.9699     1.6006     0.8337 H       
  64 H64            1.8993     1.7557    -0.9381 H       
  65 H65           -0.8125     2.9948    -1.1651 H       
  66 H66           -0.2750     1.6766    -2.0250 H       
  67 H67            0.8465     3.9881    -0.7007 H       
  68 H68            0.9171     3.8331     1.0711 H       
  69 H69            3.3876     3.6542     0.9569 H       
  70 H70            3.3170     3.8093    -0.8149 H       
  71 H71            1.9729     6.0157     0.3259 H       
  72 H72            3.1388     8.0878     0.4608 H       
  73 H73            4.8174     8.1129     0.3961 H       
  74 H74            5.9686     6.1112     0.1750 H       
  75 H75           -1.1619    -3.7629     1.3576 H       
  76 H76           -1.6450    -2.2528     2.1666 H       
  77 H77           -1.4857    -4.0512    -1.0313 H       
  78 H78           -2.7931    -3.4063    -3.0157 H       
  79 H79           -4.0261    -1.2750    -3.0384 H       
  80 H80           -3.9523     0.2110    -1.0765 H       
  81 H81           -2.6486    -0.4360     0.9097 H       
  82 H82            2.8802    -3.7675     3.7737 H       
  83 H83            1.3904    -7.6041     5.2259 H       
  84 H84            1.8292    -7.8168     2.8900 H       
  85 H85            0.7057    -6.5020     2.4781 H       
  86 H86            3.1085    -5.8126     2.3194 H       
  87 H87            3.2908    -6.1500     4.0556 H       
  88 H88           -0.1119    -5.9996     7.1353 H       
  89 H89           -1.3598    -7.8032     6.4663 H       
  90 H90           -2.3779    -6.7327     5.4560 H       
  91 H91           -1.1270    -7.1730     3.5215 H       
  92 H92           -0.6247    -8.6492     4.4097 H       
  93 H93           -2.6588    -5.2632     7.5754 H       
  94 H94           -3.3551    -2.9026     6.0036 H       
  95 H95           -3.3445    -1.4218     8.0332 H       
  96 H96           -2.5295    -2.7220     8.9353 H       
  97 H97           -0.6581    -2.6771     7.3091 H       
  98 H98           -1.4731    -1.3770     6.4071 H       
  99 H99           -5.4148    -1.8081     7.3536 H       
 100 H100          -6.8908    -3.8573     8.8199 H       
 101 H101          -8.8238    -3.7565     7.2183 H       
 102 H102          -7.7993    -2.8329     6.0933 H       
 103 H103          -9.3437    -2.7877     9.1388 H       
 104 H104          -6.1532    -4.7308     6.1104 H       
 105 H105          -6.8929    -6.9005     7.0558 H       
 106 H106          -6.7763    -5.6574     8.3244 H       
 107 H107          -8.3684    -6.1253     7.6805 H       
 108 H108          -7.8820    -4.5525     4.3417 H       
 109 H109          -7.5386    -6.2553     4.7300 H       
 110 H110          -9.0141    -5.4801     5.3547 H       
 111 H111          -9.1972     0.1284     9.1917 H       
 112 H112          -9.3939    -1.5075    11.7611 H       
 113 H113          -8.0019    -0.5144    11.2669 H       
 114 H114          -9.5599     0.2606    11.6411 H       
 115 H115         -11.4134     0.8656    10.5361 H       
 116 H116         -12.7665    -0.0242    10.0889 H       
 117 H117           0.8189     0.3992     8.6525 H       
@<TRIPOS>BOND
   1    1    2 1
   2    1    7 1
   3    1    8 1
   4    1   59 1
   5    2    3 am
   6    2   15 2
   7    3    4 1
   8    3   60 1
   9    4    5 1
  10    4   16 1
  11    4   61 1
  12    5    6 am
  13    5   23 2
  14    6   24 1
  15    6   62 1
  16    7    9 1
  17    7   63 1
  18    7   64 1
  19    8   65 1
  20    8   66 1
  21    9   10 1
  22    9   67 1
  23    9   68 1
  24   10   11 1
  25   10   69 1
  26   10   70 1
  27   11   12 1
  28   11   71 1
  29   12   13 1
  30   12   14 2
  31   13   72 1
  32   13   73 1
  33   14   74 1
  34   16   17 1
  35   16   75 1
  36   16   76 1
  37   17   18 ar
  38   17   22 ar
  39   18   19 ar
  40   18   77 1
  41   19   20 ar
  42   19   78 1
  43   20   21 ar
  44   20   79 1
  45   21   22 ar
  46   21   80 1
  47   22   81 1
  48   24   25 1
  49   24   29 1
  50   24   82 1
  51   25   26 am
  52   25   33 2
  53   26   27 1
  54   26   30 1
  55   27   28 1
  56   27   32 1
  57   27   83 1
  58   28   29 1
  59   28   84 1
  60   28   85 1
  61   29   86 1
  62   29   87 1
  63   30   31 1
  64   30   34 1
  65   30   88 1
  66   31   32 1
  67   31   89 1
  68   31   90 1
  69   32   91 1
  70   32   92 1
  71   34   35 2
  72   34   36 am
  73   36   37 1
  74   36   93 1
  75   37   38 1
  76   37   39 1
  77   37   94 1
  78   38   40 1
  79   38   95 1
  80   38   96 1
  81   39   41 am
  82   39   42 2
  83   40   56 1
  84   40   97 1
  85   40   98 1
  86   41   43 1
  87   41   99 1
  88   43   44 1
  89   43   45 1
  90   43  100 1
  91   44   46 2
  92   44   47 am
  93   45   48 1
  94   45  101 1
  95   45  102 1
  96   47   51 1
  97   47  103 1
  98   48   49 1
  99   48   50 1
 100   48  104 1
 101   49  105 1
 102   49  106 1
 103   49  107 1
 104   50  108 1
 105   50  109 1
 106   50  110 1
 107   51   52 1
 108   51   53 1
 109   51  111 1
 110   52   54 2
 111   52   55 am
 112   53  112 1
 113   53  113 1
 114   53  114 1
 115   55  115 1
 116   55  116 1
 117   56   57 2
 118   56   58 1
 119   58  117 1

#	End of record

