#	Name: ASD03331210
#	Creating user name:	WinNT
#	Creation time:	15. 06. 2019 20:38

#	Modifying user name:	WinNT
#	Modification time:	15. 06. 2019 20:38

#	Program:	/corina/corina34_cracker 3.40 0067  02.08.2006

@<TRIPOS>MOLECULE
ASD03331210
  43   45    0    0    0
SMALL
NO_CHARGES


@<TRIPOS>ATOM
   1 N1            -0.0459     1.4955     0.5697 N.am    
   2 C2             0.0019     0.1505     1.1629 C.3     
   3 C3             0.5967    -0.8151     0.1324 C.3     
   4 N4             1.8894    -0.2949    -0.3323 N.3     
   5 C5             1.7288     0.9912    -1.0237 C.3     
   6 C6             1.1805     2.0309    -0.0406 C.3     
   7 C7            -1.1849     2.2161     0.5802 C.2     
   8 O8            -2.2139     1.7206     0.9972 O.2     
   9 N9            -1.1831     3.4859     0.1284 N.am    
  10 C10           -2.3861     4.1969     0.0329 C.ar    
  11 C11           -2.4019     5.5684     0.2480 C.ar    
  12 C12           -3.5892     6.2677     0.1534 C.ar    
  13 C13           -4.7633     5.6018    -0.1553 C.ar    
  14 C14           -4.7497     4.2339    -0.3702 C.ar    
  15 C15           -3.5634     3.5319    -0.2826 C.ar    
  16 C16            2.5724    -1.2722    -1.1904 C.3     
  17 C17            3.7650    -0.6213    -1.8425 C.ar    
  18 C18            4.9976    -0.6545    -1.2179 C.ar    
  19 C19            6.0921    -0.0572    -1.8151 C.ar    
  20 C20            5.9541     0.5732    -3.0381 C.ar    
  21 C21            4.7197     0.6060    -3.6639 C.ar    
  22 C22            3.6269     0.0038    -3.0679 C.ar    
  23 Br23           4.5295     1.4684    -5.3360 Br      
  24 Br24           7.4508     1.3908    -3.8550 Br      
  25 F25           -5.9238     6.2874    -0.2465 F       
  26 H26            0.6284     0.1657     2.0548 H       
  27 H27           -1.0063    -0.1698     1.4257 H       
  28 H28            0.7419    -1.7929     0.5917 H       
  29 H29           -0.0837    -0.9079    -0.7141 H       
  30 H30            2.6952     1.3234    -1.4030 H       
  31 H31            1.0328     0.8733    -1.8542 H       
  32 H32            0.9515     2.9538    -0.5735 H       
  33 H33            1.9203     2.2269     0.7355 H       
  34 H34           -0.3488     3.9074    -0.1306 H       
  35 H35           -1.4864     6.0881     0.4896 H       
  36 H36           -3.6019     7.3346     0.3207 H       
  37 H37           -5.6665     3.7163    -0.6109 H       
  38 H38           -3.5523     2.4659    -0.4550 H       
  39 H39            2.9045    -2.1166    -0.5864 H       
  40 H40            1.8846    -1.6238    -1.9595 H       
  41 H41            5.1056    -1.1468    -0.2628 H       
  42 H42            7.0548    -0.0828    -1.3263 H       
  43 H43            2.6636     0.0290    -3.5557 H       
@<TRIPOS>BOND
   1    1    2 1
   2    1    6 1
   3    1    7 am
   4    2    3 1
   5    2   26 1
   6    2   27 1
   7    3    4 1
   8    3   28 1
   9    3   29 1
  10    4    5 1
  11    4   16 1
  12    5    6 1
  13    5   30 1
  14    5   31 1
  15    6   32 1
  16    6   33 1
  17    7    8 2
  18    7    9 am
  19    9   10 1
  20    9   34 1
  21   10   11 ar
  22   10   15 ar
  23   11   12 ar
  24   11   35 1
  25   12   13 ar
  26   12   36 1
  27   13   14 ar
  28   13   25 1
  29   14   15 ar
  30   14   37 1
  31   15   38 1
  32   16   17 1
  33   16   39 1
  34   16   40 1
  35   17   18 ar
  36   17   22 ar
  37   18   19 ar
  38   18   41 1
  39   19   20 ar
  40   19   42 1
  41   20   21 ar
  42   20   24 1
  43   21   22 ar
  44   21   23 1
  45   22   43 1

#	End of record

