#	Name: ASD09890036
#	Creating user name:	WinNT
#	Creation time:	15. 06. 2019 21:24

#	Modifying user name:	WinNT
#	Modification time:	15. 06. 2019 21:24

#	Program:	/corina/corina34_cracker 3.40 0067  02.08.2006

@<TRIPOS>MOLECULE
ASD09890036
  41   43    0    0    0
SMALL
NO_CHARGES


@<TRIPOS>ATOM
   1 C1            -0.0167     1.3784     0.0096 C.ar    
   2 C2             0.0021    -0.0041     0.0020 C.ar    
   3 C3             1.2074    -0.6814    -0.0127 C.ar    
   4 C4             2.3963     0.0221    -0.0203 C.ar    
   5 C5             2.3802     1.4093    -0.0132 C.ar    
   6 C6             1.1695     2.0865     0.0021 C.ar    
   7 O7             3.5484     2.1036    -0.0202 O.3     
   8 C8             3.4557     3.5296    -0.0122 C.3     
   9 C9             4.8408     4.1231    -0.0217 C.2     
  10 N10            5.5772     4.4485    -1.1299 N.pl3   
  11 C11            6.7574     4.9504    -0.6542 C.2     
  12 N12            6.6910     4.9106     0.6565 N.2     
  13 N13            5.5580     4.4273     1.0229 N.2     
  14 S14            8.1104     5.5384    -1.6177 S.3     
  15 C15            9.2521     6.0169    -0.2972 C.3     
  16 C16            9.6813     4.7720     0.4819 C.3     
  17 C17           10.4849     6.6872    -0.9069 C.3     
  18 C18            5.1997     4.2982    -2.4725 C.ar    
  19 C19            5.0268     5.4140    -3.2864 C.ar    
  20 C20            4.6540     5.2149    -4.6059 C.ar    
  21 C21            4.4674     3.9254    -5.0674 C.ar    
  22 N22            4.6394     2.8890    -4.2700 N.ar    
  23 C23            4.9988     3.0343    -3.0103 C.ar    
  24 H24           -0.9595     1.9052     0.0170 H       
  25 H25           -0.9263    -0.5558     0.0080 H       
  26 H26            1.2194    -1.7613    -0.0179 H       
  27 H27            3.3375    -0.5074    -0.0315 H       
  28 H28            1.1543     3.1664     0.0073 H       
  29 H29            2.9113     3.8632    -0.8956 H       
  30 H30            2.9274     3.8543     0.8842 H       
  31 H31            8.7556     6.7144     0.3774 H       
  32 H32           10.1779     4.0745    -0.1927 H       
  33 H33           10.3689     5.0601     1.2771 H       
  34 H34            8.8031     4.2944     0.9162 H       
  35 H35           10.1792     7.5741    -1.4619 H       
  36 H36           11.1725     6.9753    -0.1117 H       
  37 H37           10.9815     5.9897    -1.5815 H       
  38 H38            5.1791     6.4105    -2.8988 H       
  39 H39            4.5105     6.0574    -5.2662 H       
  40 H40            4.1764     3.7643    -6.0949 H       
  41 H41            5.1303     2.1615    -2.3880 H       
@<TRIPOS>BOND
   1    1    2 ar
   2    1    6 ar
   3    1   24 1
   4    2    3 ar
   5    2   25 1
   6    3    4 ar
   7    3   26 1
   8    4    5 ar
   9    4   27 1
  10    5    6 ar
  11    5    7 1
  12    6   28 1
  13    7    8 1
  14    8    9 1
  15    8   29 1
  16    8   30 1
  17    9   10 1
  18    9   13 2
  19   10   11 1
  20   10   18 1
  21   11   12 2
  22   11   14 1
  23   12   13 1
  24   14   15 1
  25   15   16 1
  26   15   17 1
  27   15   31 1
  28   16   32 1
  29   16   33 1
  30   16   34 1
  31   17   35 1
  32   17   36 1
  33   17   37 1
  34   18   19 ar
  35   18   23 ar
  36   19   20 ar
  37   19   38 1
  38   20   21 ar
  39   20   39 1
  40   21   22 ar
  41   21   40 1
  42   22   23 ar
  43   23   41 1

#	End of record

