#	Name: ASD01913463
#	Creating user name:	WinNT
#	Creation time:	15. 06. 2019 20:01

#	Modifying user name:	WinNT
#	Modification time:	15. 06. 2019 20:01

#	Program:	/corina/corina34_cracker 3.40 0067  02.08.2006

@<TRIPOS>MOLECULE
ASD01913463
  38   40    0    0    0
SMALL
NO_CHARGES


@<TRIPOS>ATOM
   1 C1             0.8966     0.0675    -1.0446 C.ar    
   2 C2             0.0309    -0.0130     0.0414 C.ar    
   3 C3             0.3743     0.6239     1.2255 C.ar    
   4 N4             1.5033     1.2969     1.3242 N.ar    
   5 C5             2.3455     1.3926     0.3139 C.ar    
   6 C6             2.0729     0.7849    -0.8972 C.ar    
   7 C7            -1.0667    -2.0567    -0.1524 C.ar    
   8 C8            -2.2366    -2.8034    -0.1693 C.ar    
   9 C9            -2.1582    -4.1831    -0.2738 C.ar    
  10 C10           -0.9068    -4.7708    -0.3581 C.ar    
  11 C11            0.2244    -3.9642    -0.3355 C.ar    
  12 N12            0.1141    -2.6485    -0.2347 N.ar    
  13 N13            1.4875    -4.5458    -0.4192 N.am    
  14 C14            2.5842    -3.7665    -0.5001 C.2     
  15 O15           -1.1347    -0.7051    -0.0560 O.3     
  16 C16            3.9117    -4.3790    -0.7171 C.ar    
  17 C17            5.0494    -3.5747    -0.8013 C.ar    
  18 C18            6.2860    -4.1522    -1.0041 C.ar    
  19 C19            6.4004    -5.5254    -1.1240 C.ar    
  20 C20            5.2760    -6.3298    -1.0419 C.ar    
  21 C21            4.0338    -5.7648    -0.8331 C.ar    
  22 O22            2.4815    -2.5599    -0.3945 O.2     
  23 Cl23           5.4298    -8.0523    -1.1942 Cl      
  24 C24            3.6224     2.1751     0.4821 C.3     
  25 F25            3.7378     2.5993     1.8103 F       
  26 F26            4.7136     1.3628     0.1555 F       
  27 F27            3.6012     3.2896    -0.3632 F       
  28 H28            0.6597    -0.4210    -1.9782 H       
  29 H29           -0.2904     0.5678     2.0748 H       
  30 H30            2.7686     0.8682    -1.7191 H       
  31 H31           -3.1973    -2.3146    -0.1015 H       
  32 H32           -3.0535    -4.7870    -0.2888 H       
  33 H33           -0.8114    -5.8434    -0.4401 H       
  34 H34            1.5778    -5.5116    -0.4193 H       
  35 H35            4.9618    -2.5023    -0.7083 H       
  36 H36            7.1666    -3.5305    -1.0697 H       
  37 H37            7.3708    -5.9723    -1.2826 H       
  38 H38            3.1573    -6.3926    -0.7692 H       
@<TRIPOS>BOND
   1    1    2 ar
   2    1    6 ar
   3    1   28 1
   4    2    3 ar
   5    2   15 1
   6    3    4 ar
   7    3   29 1
   8    4    5 ar
   9    5    6 ar
  10    5   24 1
  11    6   30 1
  12    7    8 ar
  13    7   12 ar
  14    7   15 1
  15    8    9 ar
  16    8   31 1
  17    9   10 ar
  18    9   32 1
  19   10   11 ar
  20   10   33 1
  21   11   12 ar
  22   11   13 1
  23   13   14 am
  24   13   34 1
  25   14   16 1
  26   14   22 2
  27   16   17 ar
  28   16   21 ar
  29   17   18 ar
  30   17   35 1
  31   18   19 ar
  32   18   36 1
  33   19   20 ar
  34   19   37 1
  35   20   21 ar
  36   20   23 1
  37   21   38 1
  38   24   25 1
  39   24   26 1
  40   24   27 1

#	End of record

