#	Name: ASD01913285
#	Creating user name:	WinNT
#	Creation time:	15. 06. 2019 20:01

#	Modifying user name:	WinNT
#	Modification time:	15. 06. 2019 20:01

#	Program:	/corina/corina34_cracker 3.40 0067  02.08.2006

@<TRIPOS>MOLECULE
ASD01913285
  37   39    0    0    0
SMALL
NO_CHARGES


@<TRIPOS>ATOM
   1 C1            -0.0169     1.3971     0.0097 C.ar    
   2 C2             0.0021    -0.0041     0.0020 C.ar    
   3 C3             1.2454    -0.6502    -0.0133 C.ar    
   4 N4             2.3460     0.0795    -0.0199 N.ar    
   5 C5             2.2851     1.4038    -0.0122 C.ar    
   6 N6             1.1293     2.0528     0.0023 N.ar    
   7 N7             3.4624     2.1297    -0.0191 N.pl3   
   8 C8             3.4200     3.5941    -0.0108 C.3     
   9 C9             4.7200     4.1556     0.5913 C.3     
  10 C10            5.3812     5.0117    -0.5086 C.3     
  11 C11            4.2074     5.4094    -1.4375 C.3     
  12 C12            3.3367     4.1285    -1.4555 C.3     
  13 C13           -1.2168    -0.7557     0.0101 C.1     
  14 C14           -2.2161    -1.3719     0.0167 C.1     
  15 C15           -3.4349    -2.1235     0.0248 C.ar    
  16 C16           -3.3984    -3.5204     0.0169 C.ar    
  17 C17           -4.5764    -4.2376     0.0252 C.ar    
  18 C18           -5.7924    -3.5773     0.0409 C.ar    
  19 C19           -5.8364    -2.1942     0.0487 C.ar    
  20 C20           -4.6665    -1.4637     0.0464 C.ar    
  21 H21           -0.9548     1.9326     0.0171 H       
  22 H22            1.3027    -1.7287    -0.0193 H       
  23 H23            4.3161     1.6693    -0.0294 H       
  24 H24            2.5618     3.9393     0.5658 H       
  25 H25            4.4926     4.7740     1.4596 H       
  26 H26            5.3824     3.3386     0.8773 H       
  27 H27            5.8425     5.8992    -0.0755 H       
  28 H28            6.1193     4.4256    -1.0561 H       
  29 H29            3.6513     6.2486    -1.0197 H       
  30 H30            4.5694     5.6445    -2.4384 H       
  31 H31            3.7446     3.3998    -2.1560 H       
  32 H32            2.3059     4.3715    -1.7135 H       
  33 H33           -2.4501    -4.0371     0.0040 H       
  34 H34           -4.5498    -5.3173     0.0192 H       
  35 H35           -6.7117    -4.1441     0.0466 H       
  36 H36           -6.7890    -1.6856     0.0606 H       
  37 H37           -4.7023    -0.3843     0.0525 H       
@<TRIPOS>BOND
   1    1    2 ar
   2    1    6 ar
   3    1   21 1
   4    2    3 ar
   5    2   13 1
   6    3    4 ar
   7    3   22 1
   8    4    5 ar
   9    5    6 ar
  10    5    7 1
  11    7    8 1
  12    7   23 1
  13    8    9 1
  14    8   12 1
  15    8   24 1
  16    9   10 1
  17    9   25 1
  18    9   26 1
  19   10   11 1
  20   10   27 1
  21   10   28 1
  22   11   12 1
  23   11   29 1
  24   11   30 1
  25   12   31 1
  26   12   32 1
  27   13   14 3
  28   14   15 1
  29   15   16 ar
  30   15   20 ar
  31   16   17 ar
  32   16   33 1
  33   17   18 ar
  34   17   34 1
  35   18   19 ar
  36   18   35 1
  37   19   20 ar
  38   19   36 1
  39   20   37 1

#	End of record

