#	Name: ASD04560197
#	Creating user name:	WinNT
#	Creation time:	15. 06. 2019 20:49

#	Modifying user name:	WinNT
#	Modification time:	15. 06. 2019 20:49

#	Program:	/corina/corina34_cracker 3.40 0067  02.08.2006

@<TRIPOS>MOLECULE
ASD04560197
  40   42    0    0    0
SMALL
NO_CHARGES


@<TRIPOS>ATOM
   1 C1            -0.0373     1.5425     0.9406 C.ar    
   2 C2            -0.0294     0.1818     1.1797 C.ar    
   3 C3             1.1794    -0.5044     1.2372 C.ar    
   4 C4             2.3669     0.1587     1.0582 C.ar    
   5 C5             1.1611     2.2276     0.7572 C.ar    
   6 S6             1.4865     3.9300     0.4399 S.3     
   7 C7             2.3816     1.5479     0.8133 C.ar    
   8 N8             3.4419     2.3583     0.6163 N.2     
   9 C9             3.2144     3.6078     0.4060 C.2     
  10 N10            4.1930     4.5637     0.1859 N.am    
  11 C11            5.4930     4.2083     0.1803 C.2     
  12 N12            6.4449     5.1381    -0.0338 N.am    
  13 O13            5.8071     3.0490     0.3683 O.2     
  14 C14            7.7970     4.7891     0.0570 C.ar    
  15 C15            8.2220     3.5359    -0.3648 C.ar    
  16 C16            8.7174     5.6968     0.5636 C.ar    
  17 C17           10.0514     5.3492     0.6518 C.ar    
  18 C18           10.4704     4.0988     0.2364 C.ar    
  19 C19            9.5569     3.1944    -0.2740 C.ar    
  20 O20           -1.2007    -0.4852     1.3590 O.3     
  21 C21           -1.1162    -1.8909     1.6020 C.3     
  22 C22           -2.5240    -2.4637     1.7771 C.3     
  23 C23           10.0189     1.8347    -0.7309 C.3     
  24 F24           10.3664     1.8909    -2.0849 F       
  25 F25           11.1323     1.4436     0.0204 F       
  26 F26            8.9868     0.9072    -0.5525 F       
  27 H27           -0.9755     2.0753     0.8913 H       
  28 H28            1.1829    -1.5680     1.4246 H       
  29 H29            3.2977    -0.3869     1.1055 H       
  30 H30            3.9424     5.4887     0.0359 H       
  31 H31            6.1928     6.0493    -0.2507 H       
  32 H32            7.5091     2.8291    -0.7631 H       
  33 H33            8.3908     6.6738     0.8879 H       
  34 H34           10.7678     6.0550     1.0455 H       
  35 H35           11.5139     3.8295     0.3061 H       
  36 H36           -0.6286    -2.3770     0.7569 H       
  37 H37           -0.5362    -2.0688     2.5076 H       
  38 H38           -3.0115    -1.9776     2.6222 H       
  39 H39           -3.1039    -2.2858     0.8715 H       
  40 H40           -2.4595    -3.5359     1.9625 H       
@<TRIPOS>BOND
   1    1    2 ar
   2    1    5 ar
   3    1   27 1
   4    2    3 ar
   5    2   20 1
   6    3    4 ar
   7    3   28 1
   8    4    7 ar
   9    4   29 1
  10    5    7 ar
  11    5    6 1
  12    6    9 1
  13    7    8 1
  14    8    9 2
  15    9   10 1
  16   10   11 am
  17   10   30 1
  18   11   12 am
  19   11   13 2
  20   12   14 1
  21   12   31 1
  22   14   16 ar
  23   14   15 ar
  24   15   19 ar
  25   15   32 1
  26   16   17 ar
  27   16   33 1
  28   17   18 ar
  29   17   34 1
  30   18   19 ar
  31   18   35 1
  32   19   23 1
  33   20   21 1
  34   21   22 1
  35   21   36 1
  36   21   37 1
  37   22   38 1
  38   22   39 1
  39   22   40 1
  40   23   24 1
  41   23   25 1
  42   23   26 1

#	End of record

