#	Name: ASD00311517
#	Creating user name:	WinNT
#	Creation time:	15. 06. 2019 18:34

#	Modifying user name:	WinNT
#	Modification time:	15. 06. 2019 18:34

#	Program:	/corina/corina34_cracker 3.40 0067  02.08.2006

@<TRIPOS>MOLECULE
ASD00311517
  50   54    0    0    0
SMALL
NO_CHARGES


@<TRIPOS>ATOM
   1 C1            -0.0167     1.3778     0.0096 C.2     
   2 C2             0.0021    -0.0041     0.0020 C.2     
   3 C3             1.2589    -0.6766    -0.0136 C.2     
   4 C4             2.4316     0.0673    -0.0208 C.2     
   5 C5             2.3574     1.4753    -0.0125 C.2     
   6 N6             1.1648     2.0904     0.0022 N.am    
   7 C7            -1.3431    -0.5750     0.0118 C.2     
   8 C8            -2.3223     0.3256     0.0260 C.2     
   9 S9            -1.6794     1.9560     0.0358 S.3     
  10 O10            3.3822     2.1374    -0.0183 O.2     
  11 C11            3.7477    -0.6119    -0.0365 C.ar    
  12 C12            4.5935    -0.4744    -1.1370 C.ar    
  13 C13            5.8184    -1.1096    -1.1457 C.ar    
  14 C14            6.2081    -1.8816    -0.0659 C.ar    
  15 C15            5.3736    -2.0218     1.0286 C.ar    
  16 C16            4.1487    -1.3868     1.0516 C.ar    
  17 C17           -2.7008    -3.9682     0.9222 C.ar    
  18 C18           -2.4684    -2.5964     0.9341 C.ar    
  19 C19           -1.5955    -2.0356     0.0059 C.ar    
  20 C20           -0.9591    -2.8512    -0.9302 C.ar    
  21 C21           -1.1943    -4.2116    -0.9371 C.ar    
  22 C22           -2.0596    -4.7730    -0.0182 C.ar    
  23 C23           -3.6252    -4.5741     1.9124 C.ar    
  24 C24           -3.8589    -5.9479     1.9016 C.ar    
  25 C25           -4.7195    -6.5061     2.8246 C.ar    
  26 C26           -5.3498    -5.7046     3.7596 C.ar    
  27 C27           -5.1216    -4.3406     3.7748 C.ar    
  28 C28           -4.2582    -3.7725     2.8597 C.ar    
  29 C29           -4.9736    -7.9915     2.8139 C.3     
  30 O30           -4.0243    -8.6432     3.6602 O.3     
  31 O31            1.3089    -2.0291    -0.0209 O.3     
  32 H32            1.1326     3.0599     0.0073 H       
  33 H33           -3.3749     0.0838     0.0347 H       
  34 H34            4.2902     0.1277    -1.9807 H       
  35 H35            6.4740    -1.0043    -1.9974 H       
  36 H36            7.1676    -2.3772    -0.0775 H       
  37 H37            5.6834    -2.6258     1.8686 H       
  38 H38            3.5000    -1.4933     1.9085 H       
  39 H39           -2.9634    -1.9691     1.6607 H       
  40 H40           -0.2817    -2.4176    -1.6509 H       
  41 H41           -0.6999    -4.8392    -1.6637 H       
  42 H42           -2.2391    -5.8380    -0.0279 H       
  43 H43           -3.3676    -6.5745     1.1719 H       
  44 H44           -6.0229    -6.1455     4.4799 H       
  45 H45           -5.6163    -3.7195     4.5068 H       
  46 H46           -4.0772    -2.7079     2.8753 H       
  47 H47           -5.9816    -8.1903     3.1779 H       
  48 H48           -4.8734    -8.3699     1.7966 H       
  49 H49           -4.1285    -9.6037     3.7015 H       
  50 H50            2.2062    -2.3895    -0.0314 H       
@<TRIPOS>BOND
   1    1    2 2
   2    1    6 1
   3    1    9 1
   4    2    3 1
   5    2    7 1
   6    3    4 2
   7    3   31 1
   8    4    5 1
   9    4   11 1
  10    5    6 am
  11    5   10 2
  12    6   32 1
  13    7    8 2
  14    7   19 1
  15    8    9 1
  16    8   33 1
  17   11   12 ar
  18   11   16 ar
  19   12   13 ar
  20   12   34 1
  21   13   14 ar
  22   13   35 1
  23   14   15 ar
  24   14   36 1
  25   15   16 ar
  26   15   37 1
  27   16   38 1
  28   17   18 ar
  29   17   22 ar
  30   17   23 1
  31   18   19 ar
  32   18   39 1
  33   19   20 ar
  34   20   21 ar
  35   20   40 1
  36   21   22 ar
  37   21   41 1
  38   22   42 1
  39   23   24 ar
  40   23   28 ar
  41   24   25 ar
  42   24   43 1
  43   25   26 ar
  44   25   29 1
  45   26   27 ar
  46   26   44 1
  47   27   28 ar
  48   27   45 1
  49   28   46 1
  50   29   30 1
  51   29   47 1
  52   29   48 1
  53   30   49 1
  54   31   50 1

#	End of record

