#	Name: ASD01028832
#	Creating user name:	WinNT
#	Creation time:	15. 06. 2019 18:58

#	Modifying user name:	WinNT
#	Modification time:	15. 06. 2019 18:58

#	Program:	/corina/corina34_cracker 3.40 0067  02.08.2006

@<TRIPOS>MOLECULE
ASD01028832
  43   47    0    0    0
SMALL
NO_CHARGES


@<TRIPOS>ATOM
   1 C1            -0.0157     1.3069     0.0092 C.ar    
   2 N2             0.0021    -0.0041     0.0020 N.ar    
   3 C3             1.1586     2.0559     0.0020 C.ar    
   4 C4             2.3699     1.4244    -0.0129 C.ar    
   5 C5             2.3850     0.0172    -0.0207 C.ar    
   6 C6             1.1531    -0.6832    -0.0126 C.ar    
   7 C7             3.5917    -0.7011    -0.0355 C.ar    
   8 C8             3.5643    -2.0621    -0.0422 C.ar    
   9 C9             2.3540    -2.7531    -0.0344 C.ar    
  10 C10            1.1663    -2.0891    -0.0204 C.ar    
  11 C11            4.8598    -2.8318    -0.0587 C.3     
  12 C12            4.9407    -3.7054     1.1666 C.2     
  13 N13            5.8927    -3.6504     2.1235 N.pl3   
  14 C14            5.5672    -4.6230     3.0388 C.2     
  15 N15            4.4620    -5.2047     2.6024 N.2     
  16 N16            4.0975    -4.6511     1.4988 N.2     
  17 N17            7.0266    -2.8586     2.3163 N.2     
  18 C18            7.7919    -3.0352     3.3725 C.2     
  19 C19            7.4832    -4.0266     4.3303 C.2     
  20 C20            6.3858    -4.8111     4.1690 C.2     
  21 C21            4.9177    -3.7060    -1.3130 C.3     
  22 C22            8.9886    -2.1867     3.5583 C.2     
  23 S23           10.1602    -2.2373     4.8875 S.3     
  24 N24           11.1269    -0.9776     4.2888 N.2     
  25 C25           10.5921    -0.5669     3.1770 C.2     
  26 C26            9.4476    -1.1829     2.7345 C.2     
  27 C27           11.2172     0.5557     2.3895 C.3     
  28 H28           -0.9662     1.8197     0.0165 H       
  29 H29            1.1116     3.1349     0.0079 H       
  30 H30            3.2903     1.9894    -0.0191 H       
  31 H31            4.5358    -0.1768    -0.0420 H       
  32 H32            2.3588    -3.8330    -0.0400 H       
  33 H33            0.2374    -2.6400    -0.0144 H       
  34 H34            5.6970    -2.1339    -0.0633 H       
  35 H35            8.1200    -4.1606     5.1922 H       
  36 H36            6.1448    -5.5704     4.8982 H       
  37 H37            4.0804    -4.4040    -1.3084 H       
  38 H38            4.8592    -3.0742    -2.1993 H       
  39 H39            5.8547    -4.2628    -1.3249 H       
  40 H40            8.9451    -0.8988     1.8218 H       
  41 H41           11.9319     0.1451     1.6762 H       
  42 H42           10.4400     1.0997     1.8528 H       
  43 H43           11.7319     1.2342     3.0699 H       
@<TRIPOS>BOND
   1    1    2 ar
   2    1    3 ar
   3    1   28 1
   4    2    6 ar
   5    3    4 ar
   6    3   29 1
   7    4    5 ar
   8    4   30 1
   9    5    6 ar
  10    5    7 ar
  11    6   10 ar
  12    7    8 ar
  13    7   31 1
  14    8    9 ar
  15    8   11 1
  16    9   10 ar
  17    9   32 1
  18   10   33 1
  19   11   12 1
  20   11   21 1
  21   11   34 1
  22   12   13 1
  23   12   16 2
  24   13   14 1
  25   13   17 1
  26   14   15 2
  27   14   20 1
  28   15   16 1
  29   17   18 2
  30   18   19 1
  31   18   22 1
  32   19   20 2
  33   19   35 1
  34   20   36 1
  35   21   37 1
  36   21   38 1
  37   21   39 1
  38   22   23 1
  39   22   26 2
  40   23   24 1
  41   24   25 2
  42   25   26 1
  43   25   27 1
  44   26   40 1
  45   27   41 1
  46   27   42 1
  47   27   43 1

#	End of record

