#	Name: ASD03430042
#	Creating user name:	WinNT
#	Creation time:	15. 06. 2019 20:40

#	Modifying user name:	WinNT
#	Modification time:	15. 06. 2019 20:40

#	Program:	/corina/corina34_cracker 3.40 0067  02.08.2006

@<TRIPOS>MOLECULE
ASD03430042
  50   54    0    0    0
SMALL
NO_CHARGES


@<TRIPOS>ATOM
   1 C1            -0.0167     1.3821     0.0096 C.ar    
   2 C2             0.0021    -0.0041     0.0020 C.ar    
   3 C3             1.2026    -0.6822    -0.0137 C.ar    
   4 C4             2.4084     0.0129    -0.0128 C.ar    
   5 C5             2.3859     1.4039    -0.0108 C.ar    
   6 C6             1.1814     2.0870     0.0020 C.ar    
   7 O7             3.4713    -0.8415     0.0007 O.3     
   8 C8             1.5513    -2.1460    -0.0457 C.3     
   9 C9             3.0380    -2.1461    -0.4287 C.3     
  10 C10            0.4336    -3.8656     1.0097 C.ar    
  11 C11            1.3139    -2.8199     1.2731 C.ar    
  12 C12            0.7221    -2.9086    -1.0386 C.2     
  13 N13            0.1071    -3.8916    -0.3513 N.am    
  14 O14            0.6250    -2.6844    -2.2261 O.2     
  15 C15            1.7725    -2.5957     2.5522 C.ar    
  16 C16            1.3619    -3.4142     3.5891 C.ar    
  17 C17            0.4896    -4.4576     3.3382 C.ar    
  18 C18            0.0260    -4.6849     2.0590 C.ar    
  19 C19           -0.7242    -4.7940    -0.9090 C.2     
  20 O20           -1.2111     2.0359     0.0189 O.3     
  21 C21           -1.1859     3.4151     0.4029 C.3     
  22 C22           -0.0352     4.1005    -0.3463 C.3     
  23 O23            1.1868     3.4485     0.0124 O.3     
  24 O24           -1.2400    -5.6514    -0.2205 O.2     
  25 O25           -0.9828    -4.7451    -2.2290 O.3     
  26 C26           -1.8874    -5.7484    -2.7611 C.3     
  27 C27           -3.2474    -5.6264    -2.0709 C.3     
  28 C28           -2.0583    -5.5341    -4.2664 C.3     
  29 C29           -1.3097    -7.1422    -2.5068 C.3     
  30 H30           -0.9269    -0.5548     0.0087 H       
  31 H31            3.3146     1.9551    -0.0194 H       
  32 H32            3.1602    -2.2594    -1.5059 H       
  33 H33            3.5757    -2.9283     0.1073 H       
  34 H34            2.4536    -1.7802     2.7459 H       
  35 H35            1.7219    -3.2391     4.5921 H       
  36 H36            0.1702    -5.0977     4.1473 H       
  37 H37           -0.6556    -5.5013     1.8708 H       
  38 H38           -2.1312     3.8882     0.1369 H       
  39 H39           -1.0239     3.4946     1.4778 H       
  40 H40           -0.1936     4.0143    -1.4213 H       
  41 H41            0.0120     5.1523    -0.0644 H       
  42 H42           -3.6590    -4.6335    -2.2521 H       
  43 H43           -3.9265    -6.3796    -2.4704 H       
  44 H44           -3.1257    -5.7791    -0.9986 H       
  45 H45           -1.0894    -5.6210    -4.7581 H       
  46 H46           -2.7373    -6.2873    -4.6659 H       
  47 H47           -2.4698    -4.5412    -4.4475 H       
  48 H48           -1.1879    -7.2949    -1.4345 H       
  49 H49           -1.9887    -7.8954    -2.9063 H       
  50 H50           -0.3408    -7.2291    -2.9985 H       
@<TRIPOS>BOND
   1    1    2 ar
   2    1    6 ar
   3    1   20 1
   4    2    3 ar
   5    2   30 1
   6    3    4 ar
   7    3    8 1
   8    4    5 ar
   9    4    7 1
  10    5    6 ar
  11    5   31 1
  12    6   23 1
  13    7    9 1
  14    8    9 1
  15    8   11 1
  16    8   12 1
  17    9   32 1
  18    9   33 1
  19   10   11 ar
  20   10   13 1
  21   10   18 ar
  22   11   15 ar
  23   12   13 am
  24   12   14 2
  25   13   19 am
  26   15   16 ar
  27   15   34 1
  28   16   17 ar
  29   16   35 1
  30   17   18 ar
  31   17   36 1
  32   18   37 1
  33   19   24 2
  34   19   25 1
  35   20   21 1
  36   21   22 1
  37   21   38 1
  38   21   39 1
  39   22   23 1
  40   22   40 1
  41   22   41 1
  42   25   26 1
  43   26   27 1
  44   26   28 1
  45   26   29 1
  46   27   42 1
  47   27   43 1
  48   27   44 1
  49   28   45 1
  50   28   46 1
  51   28   47 1
  52   29   48 1
  53   29   49 1
  54   29   50 1

#	End of record

