#	Name: ASD02198667
#	Creating user name:	WinNT
#	Creation time:	15. 06. 2019 20:19

#	Modifying user name:	WinNT
#	Modification time:	15. 06. 2019 20:19

#	Program:	/corina/corina34_cracker 3.40 0067  02.08.2006

@<TRIPOS>MOLECULE
ASD02198667
  40   41    0    0    0
SMALL
NO_CHARGES


@<TRIPOS>ATOM
   1 C1            -0.0164     1.3546     0.0095 C.2     
   2 C2             0.0021    -0.0041     0.0020 C.2     
   3 N3            -1.1538    -0.7131     0.0088 N.pl3   
   4 N4            -2.3138    -0.1682     0.0223 N.2     
   5 C5            -2.4752     1.1401     0.0312 C.2     
   6 C6            -1.2844     2.0002     0.0311 C.2     
   7 C7            -1.0763    -2.1098     0.0001 C.ar    
   8 C8            -1.6566    -4.2241    -0.9892 C.ar    
   9 C9            -0.9220    -4.8761    -0.0164 C.ar    
  10 C10           -0.2700    -4.1515     0.9661 C.ar    
  11 C11           -0.3452    -2.7726     0.9769 C.ar    
  12 C12           -3.8281     1.7301     0.0467 C.2     
  13 O13           -1.3787     3.2181     0.0395 O.2     
  14 C14           -1.7374    -2.8404    -0.9859 C.ar    
  15 N15           -4.9124     0.9296     0.0519 N.am    
  16 O16           -3.9644     2.9383     0.0549 O.2     
  17 I17           -0.8022    -6.9677    -0.0246 I       
  18 O18           -2.4595    -2.1979    -1.9412 O.3     
  19 C19           -3.1101    -3.0113    -2.9195 C.3     
  20 C20           -6.2552     1.5152     0.0673 C.3     
  21 O21            1.1379     2.0730     0.0023 O.3     
  22 C22            2.3614     1.3348    -0.0133 C.3     
  23 O23           -4.7537    -0.4774     0.0424 O.3     
  24 C24           -4.6768    -1.0624     1.3439 C.3     
  25 H25            0.9480    -0.5251    -0.0098 H       
  26 H26           -2.1638    -4.7927    -1.7546 H       
  27 H27            0.3026    -4.6655     1.7239 H       
  28 H28            0.1649    -2.2098     1.7447 H       
  29 H29           -3.8113    -3.6835    -2.4249 H       
  30 H30           -3.6500    -2.3747    -3.6204 H       
  31 H31           -2.3653    -3.5961    -3.4593 H       
  32 H32           -6.5974     1.6663    -0.9565 H       
  33 H33           -6.9393     0.8417     0.5835 H       
  34 H34           -6.2278     2.4733     0.5864 H       
  35 H35            3.2033     2.0271    -0.0176 H       
  36 H36            2.4155     0.7024     0.8728 H       
  37 H37            2.3985     0.7120    -0.9071 H       
  38 H38           -4.5558    -2.1417     1.2506 H       
  39 H39           -3.8236    -0.6461     1.8796 H       
  40 H40           -5.5923    -0.8457     1.8943 H       
@<TRIPOS>BOND
   1    1    2 2
   2    1   21 1
   3    1    6 1
   4    2    3 1
   5    2   25 1
   6    3    4 1
   7    3    7 1
   8    4    5 2
   9    5    6 1
  10    5   12 1
  11    6   13 2
  12    7   14 ar
  13    7   11 ar
  14    8    9 ar
  15    8   14 ar
  16    8   26 1
  17    9   10 ar
  18    9   17 1
  19   10   11 ar
  20   10   27 1
  21   11   28 1
  22   12   15 am
  23   12   16 2
  24   14   18 1
  25   15   20 1
  26   15   23 1
  27   18   19 1
  28   19   29 1
  29   19   30 1
  30   19   31 1
  31   20   32 1
  32   20   33 1
  33   20   34 1
  34   21   22 1
  35   22   35 1
  36   22   36 1
  37   22   37 1
  38   23   24 1
  39   24   38 1
  40   24   39 1
  41   24   40 1

#	End of record

