#	Name: ASD01880322
#	Creating user name:	WinNT
#	Creation time:	15. 06. 2019 19:40

#	Modifying user name:	WinNT
#	Modification time:	15. 06. 2019 19:40

#	Program:	/corina/corina34_cracker 3.40 0067  02.08.2006

@<TRIPOS>MOLECULE
ASD01880322
  38   40    0    0    0
SMALL
NO_CHARGES


@<TRIPOS>ATOM
   1 C1            -0.1062     1.2770    -0.6723 C.ar    
   2 N2            -0.0676    -0.0345    -0.5219 N.ar    
   3 C3            -1.1429    -0.7147    -0.1524 C.ar    
   4 C4            -2.3522    -0.0118     0.0833 C.ar    
   5 C5            -2.3380     1.3750    -0.0904 C.ar    
   6 N6            -1.1991     1.9733    -0.4611 N.ar    
   7 C7            -3.6582    -0.4952     0.4895 C.2     
   8 C8            -4.5788     0.4403     0.6195 C.2     
   9 S9            -3.9328     2.0288     0.2533 S.3     
  10 C10            1.1475     1.9990    -1.0944 C.3     
  11 C11           -6.0049     0.1773     1.0297 C.3     
  12 N12           -1.0872    -2.0894     0.0007 N.pl3   
  13 C13            0.1347    -2.7571    -0.1205 C.ar    
  14 C14            1.3106    -2.1337     0.2780 C.ar    
  15 C15            2.5182    -2.7940     0.1581 C.ar    
  16 C16            2.5601    -4.0751    -0.3579 C.ar    
  17 C17            1.3883    -4.7032    -0.7573 C.ar    
  18 C18            0.1743    -4.0465    -0.6338 C.ar    
  19 O19            1.4312    -5.9632    -1.2646 O.3     
  20 C20            2.7161    -6.5814    -1.3584 C.3     
  21 C21            1.2034     2.0737    -2.6215 C.3     
  22 H22           -3.8611    -1.5403     0.6711 H       
  23 H23            1.1424     3.0076    -0.6812 H       
  24 H24            2.0194     1.4593    -0.7248 H       
  25 H25           -6.0872     0.2341     2.1151 H       
  26 H26           -6.6569     0.9239     0.5763 H       
  27 H27           -6.3020    -0.8163     0.6943 H       
  28 H28           -1.8961    -2.5892     0.1922 H       
  29 H29            1.2807    -1.1323     0.6813 H       
  30 H30            3.4314    -2.3077     0.4680 H       
  31 H31            3.5058    -4.5883    -0.4510 H       
  32 H32           -0.7383    -4.5336    -0.9440 H       
  33 H33            3.3606    -5.9839    -2.0033 H       
  34 H34            3.1595    -6.6504    -0.3651 H       
  35 H35            2.6084    -7.5814    -1.7785 H       
  36 H36            1.2084     1.0651    -3.0347 H       
  37 H37            0.3314     2.6134    -2.9910 H       
  38 H38            2.1101     2.5959    -2.9268 H       
@<TRIPOS>BOND
   1    1    2 ar
   2    1   10 1
   3    1    6 ar
   4    2    3 ar
   5    3    4 ar
   6    3   12 1
   7    4    5 ar
   8    4    7 1
   9    5    6 ar
  10    5    9 1
  11    7    8 2
  12    7   22 1
  13    8    9 1
  14    8   11 1
  15   10   21 1
  16   10   23 1
  17   10   24 1
  18   11   25 1
  19   11   26 1
  20   11   27 1
  21   12   13 1
  22   12   28 1
  23   13   14 ar
  24   13   18 ar
  25   14   15 ar
  26   14   29 1
  27   15   16 ar
  28   15   30 1
  29   16   17 ar
  30   16   31 1
  31   17   18 ar
  32   17   19 1
  33   18   32 1
  34   19   20 1
  35   20   33 1
  36   20   34 1
  37   20   35 1
  38   21   36 1
  39   21   37 1
  40   21   38 1

#	End of record

