#	Name: ASD04882027
#	Creating user name:	WinNT
#	Creation time:	15. 06. 2019 20:53

#	Modifying user name:	WinNT
#	Modification time:	15. 06. 2019 20:53

#	Program:	/corina/corina34_cracker 3.40 0067  02.08.2006

@<TRIPOS>MOLECULE
ASD04882027
  69   73    0    0    0
SMALL
NO_CHARGES


@<TRIPOS>ATOM
   1 C1             1.0152    -0.3240    -1.2353 C.ar    
   2 C2             0.8430    -1.3021    -2.1973 C.ar    
   3 C3             1.8278    -1.5288    -3.1415 C.ar    
   4 C4             2.9869    -0.7785    -3.1264 C.ar    
   5 C5             3.1632     0.2051    -2.1612 C.ar    
   6 C6             2.1722     0.4302    -1.2145 C.ar    
   7 N7             4.3346     0.9656    -2.1427 N.3     
   8 C8             5.1016     0.7216    -0.9131 C.3     
   9 C9             6.4121     1.5103    -0.9675 C.3     
  10 N10            6.1138     2.9408    -1.1236 N.3     
  11 C11            5.3469     3.1848    -2.3532 C.3     
  12 C12            4.0363     2.3961    -2.2988 C.3     
  13 C13            7.2816     3.6990    -1.1051 C.ar    
  14 C14            7.6933     4.3674    -2.2520 C.ar    
  15 C15            8.8482     5.1182    -2.2383 C.ar    
  16 C16            9.6096     5.2098    -1.0703 C.ar    
  17 C17            9.1975     4.5388     0.0849 C.ar    
  18 C18            8.0355     3.7914     0.0687 C.ar    
  19 N19            7.6191     3.1175     1.2241 N.am    
  20 C20            8.5265     2.7307     2.1426 C.2     
  21 C21            8.1031     1.9449     3.3058 C.2     
  22 O22            9.6974     3.0338     2.0064 O.2     
  23 O23            6.8436     1.5436     3.5756 O.3     
  24 C24           10.8469     6.0132    -1.0562 C.2     
  25 N25           11.2435     6.6594    -2.1705 N.am    
  26 O26           11.5089     6.0924    -0.0393 O.2     
  27 C27            8.9154     1.4860     4.3030 C.2     
  28 C28            8.0950     0.7874     5.2025 C.2     
  29 C29            6.8344     0.8468     4.7194 C.2     
  30 C30            4.0596    -1.0266    -4.1553 C.3     
  31 C31           12.4722     7.4571    -2.1566 C.3     
  32 C32           13.6735     6.5500    -2.4323 C.3     
  33 N33           14.9032     7.3527    -2.4392 N.3     
  34 C34           14.8708     8.3645    -3.5030 C.3     
  35 C35           13.7052     9.3257    -3.2593 C.3     
  36 C36           12.3938     8.5356    -3.2406 C.3     
  37 H37           15.0614     7.7796    -1.5388 H       
  38 H38            0.2423    -0.1464    -0.5022 H       
  39 H39           -0.0625    -1.8906    -2.2112 H       
  40 H40            1.6903    -2.2939    -3.8913 H       
  41 H41            2.3061     1.1941    -0.4628 H       
  42 H42            4.5184     1.0444    -0.0507 H       
  43 H43            5.3209    -0.3426    -0.8265 H       
  44 H44            6.9694     1.3537    -0.0439 H       
  45 H45            7.0074     1.1684    -1.8142 H       
  46 H46            5.1275     4.2490    -2.4398 H       
  47 H47            5.9300     2.8620    -3.2156 H       
  48 H48            3.4791     2.5527    -3.2223 H       
  49 H49            3.4411     2.7380    -1.4521 H       
  50 H50            7.1066     4.2977    -3.1561 H       
  51 H51            9.1656     5.6362    -3.1313 H       
  52 H52            9.7842     4.6075     0.9891 H       
  53 H53            6.6778     2.9292     1.3631 H       
  54 H54           10.7155     6.5962    -2.9817 H       
  55 H55            9.9825     1.6320     4.3837 H       
  56 H56            8.4121     0.2930     6.1088 H       
  57 H57            5.9629     0.4056     5.1801 H       
  58 H58            3.8326    -0.4629    -5.0601 H       
  59 H59            5.0235    -0.7062    -3.7598 H       
  60 H60            4.0988    -2.0903    -4.3902 H       
  61 H61           12.5887     7.9288    -1.1808 H       
  62 H62           13.7406     5.7896    -1.6542 H       
  63 H63           13.5493     6.0675    -3.4017 H       
  64 H64           15.8075     8.9219    -3.5026 H       
  65 H65           14.7410     7.8734    -4.4674 H       
  66 H66           13.8415     9.8274    -2.3012 H       
  67 H67           13.6720    10.0672    -4.0575 H       
  68 H68           12.2379     8.0655    -4.2116 H       
  69 H69           11.5653     9.2101    -3.0242 H       
@<TRIPOS>BOND
   1    1    2 ar
   2    1    6 ar
   3    1   38 1
   4    2    3 ar
   5    2   39 1
   6    3    4 ar
   7    3   40 1
   8    4    5 ar
   9    4   30 1
  10    5    6 ar
  11    5    7 1
  12    6   41 1
  13    7    8 1
  14    7   12 1
  15    8    9 1
  16    8   42 1
  17    8   43 1
  18    9   10 1
  19    9   44 1
  20    9   45 1
  21   10   11 1
  22   10   13 1
  23   11   12 1
  24   11   46 1
  25   11   47 1
  26   12   48 1
  27   12   49 1
  28   13   14 ar
  29   13   18 ar
  30   14   15 ar
  31   14   50 1
  32   15   16 ar
  33   15   51 1
  34   16   17 ar
  35   16   24 1
  36   17   18 ar
  37   17   52 1
  38   18   19 1
  39   19   20 am
  40   19   53 1
  41   20   21 1
  42   20   22 2
  43   21   23 1
  44   21   27 2
  45   23   29 1
  46   24   25 am
  47   24   26 2
  48   25   31 1
  49   25   54 1
  50   27   28 1
  51   27   55 1
  52   28   29 2
  53   28   56 1
  54   29   57 1
  55   30   58 1
  56   30   59 1
  57   30   60 1
  58   31   32 1
  59   31   36 1
  60   31   61 1
  61   32   33 1
  62   32   62 1
  63   32   63 1
  64   33   34 1
  65   33   37 1
  66   34   35 1
  67   34   64 1
  68   34   65 1
  69   35   36 1
  70   35   66 1
  71   35   67 1
  72   36   68 1
  73   36   69 1

#	End of record

