#	Name: ASD02570008
#	Creating user name:	WinNT
#	Creation time:	15. 06. 2019 20:25

#	Modifying user name:	WinNT
#	Modification time:	15. 06. 2019 20:25

#	Program:	/corina/corina34_cracker 3.40 0067  02.08.2006

@<TRIPOS>MOLECULE
ASD02570008
  50   50    0    0    0
SMALL
NO_CHARGES


@<TRIPOS>ATOM
   1 C1             1.8506    -1.0771     1.6402 C.3     
   2 C2             0.7261    -1.0249     0.5988 C.3     
   3 C3             0.6281     0.4039     0.0602 C.3     
   4 C4             1.9851     0.8943    -0.3535 C.2     
   5 C5             3.1177     0.3308     0.0316 C.2     
   6 C6             3.1871    -0.8747     0.9233 C.3     
   7 C7             2.0611     2.0963    -1.2592 C.3     
   8 C8             4.3352     0.8970    -0.4237 C.2     
   9 C9             4.6237     2.1964    -0.1518 C.2     
  10 C10            4.2940    -0.6753     1.9606 C.3     
  11 C11            3.5028    -2.1118     0.0801 C.3     
  12 C12            5.7776     2.7891    -0.6951 C.2     
  13 C13            6.0673     4.0938    -0.4220 C.2     
  14 C14            6.6940     1.9829    -1.5790 C.3     
  15 C15            7.2184     4.6851    -0.9640 C.2     
  16 C16            7.5084     5.9912    -0.6906 C.2     
  17 C17            8.6594     6.5824    -1.2326 C.2     
  18 C18            8.9490     7.8869    -0.9595 C.2     
  19 C19            9.5757     5.7762    -2.1164 C.3     
  20 C20           10.0176     8.5251    -1.6213 C.2     
  21 O21           10.6052     7.9528    -2.5212 O.2     
  22 O22           10.3897     9.7712    -1.2572 O.3     
  23 H23            1.7059    -0.2854     2.3753 H       
  24 H24            1.8448    -2.0473     2.1369 H       
  25 H25            0.9521    -1.7096    -0.2187 H       
  26 H26           -0.2181    -1.3060     1.0651 H       
  27 H27           -0.0401     0.4204    -0.8009 H       
  28 H28            0.2294     1.0563     0.8370 H       
  29 H29            1.0532     2.4151    -1.5252 H       
  30 H30            2.5746     2.9079    -0.7436 H       
  31 H31            2.6103     1.8355    -2.1638 H       
  32 H32            5.0332     0.2953    -0.9868 H       
  33 H33            3.9670     2.7742     0.4817 H       
  34 H34            4.1243     0.2575     2.4983 H       
  35 H35            4.2861    -1.5072     2.6648 H       
  36 H36            5.2601    -0.6342     1.4576 H       
  37 H37            4.4604    -1.9745    -0.4221 H       
  38 H38            3.5536    -2.9884     0.7260 H       
  39 H39            2.7193    -2.2538    -0.6642 H       
  40 H40            5.4106     4.6716     0.2114 H       
  41 H41            6.3764     2.0807    -2.6171 H       
  42 H42            7.7149     2.3504    -1.4752 H       
  43 H43            6.6535     0.9343    -1.2839 H       
  44 H44            7.8751     4.1073    -1.5974 H       
  45 H45            6.8517     6.5690    -0.0572 H       
  46 H46            8.3596     8.4310    -0.2363 H       
  47 H47            9.3204     5.9523    -3.1614 H       
  48 H48           10.6085     6.0765    -1.9392 H       
  49 H49            9.4612     4.7165    -1.8881 H       
  50 H50           11.1309    10.1253    -1.7675 H       
@<TRIPOS>BOND
   1    1    2 1
   2    1    6 1
   3    1   23 1
   4    1   24 1
   5    2    3 1
   6    2   25 1
   7    2   26 1
   8    3    4 1
   9    3   27 1
  10    3   28 1
  11    4    5 2
  12    4    7 1
  13    5    6 1
  14    5    8 1
  15    6   10 1
  16    6   11 1
  17    7   29 1
  18    7   30 1
  19    7   31 1
  20    8    9 2
  21    8   32 1
  22    9   12 1
  23    9   33 1
  24   10   34 1
  25   10   35 1
  26   10   36 1
  27   11   37 1
  28   11   38 1
  29   11   39 1
  30   12   13 2
  31   12   14 1
  32   13   15 1
  33   13   40 1
  34   14   41 1
  35   14   42 1
  36   14   43 1
  37   15   16 2
  38   15   44 1
  39   16   17 1
  40   16   45 1
  41   17   18 2
  42   17   19 1
  43   18   20 1
  44   18   46 1
  45   19   47 1
  46   19   48 1
  47   19   49 1
  48   20   21 2
  49   20   22 1
  50   22   50 1

#	End of record

