#	Name: ASD01510134
#	Creating user name:	WinNT
#	Creation time:	15. 06. 2019 19:21

#	Modifying user name:	WinNT
#	Modification time:	15. 06. 2019 19:21

#	Program:	/corina/corina34_cracker 3.40 0067  02.08.2006

@<TRIPOS>MOLECULE
ASD01510134
  42   45    0    0    0
SMALL
NO_CHARGES


@<TRIPOS>ATOM
   1 C1             0.0062     1.3753    -0.3435 C.ar    
   2 C2             0.0419     0.0114    -0.5185 C.ar    
   3 C3             1.2456    -0.6715    -0.5236 C.ar    
   4 C4             2.4243     0.0283    -0.3505 C.ar    
   5 C5             1.1905     2.1076    -0.1658 C.ar    
   6 N6             1.3226     3.4708     0.0204 N.pl3   
   7 C7             2.3937     1.4008    -0.1740 C.ar    
   8 S8             3.6764     2.5942     0.0699 S.3     
   9 C9             2.5753     3.9777     0.1732 C.2     
  10 C10            2.9201     5.3061     0.3699 C.2     
  11 C11            4.1903     5.8245     0.6329 C.2     
  12 N12            4.2876     7.1336     0.7870 N.am    
  13 C13            3.1374     7.8820     0.6774 C.2     
  14 S14            1.8450     6.7167     0.3345 S.3     
  15 C15            0.1470     4.3446     0.0517 C.3     
  16 O16            5.1687     5.0992     0.7173 O.2     
  17 C17            5.5783     7.7679     1.0661 C.3     
  18 C18            6.2601     8.1386    -0.2524 C.3     
  19 C19            3.0184     9.2289     0.8004 C.2     
  20 C20            1.7066     9.8651     0.6523 C.ar    
  21 C21           -0.7470    11.0189     0.3706 C.ar    
  22 C22            0.3464    11.8388     0.6315 C.ar    
  23 C23            1.5892    11.2568     0.7744 C.ar    
  24 N24            0.6330     9.1179     0.3970 N.ar    
  25 C25           -0.5631     9.6553     0.2570 C.ar    
  26 H26           -0.9436     1.8892    -0.3474 H       
  27 H27           -0.8809    -0.5333    -0.6532 H       
  28 H28            1.2635    -1.7425    -0.6613 H       
  29 H29            3.3689    -0.4954    -0.3525 H       
  30 H30           -0.7569     3.7403    -0.0241 H       
  31 H31            0.1337     4.9023     0.9881 H       
  32 H32            0.1897     5.0412    -0.7856 H       
  33 H33            5.4198     8.6687     1.6591 H       
  34 H34            6.2115     7.0749     1.6203 H       
  35 H35            6.4186     7.2378    -0.8453 H       
  36 H36            5.6270     8.8316    -0.8065 H       
  37 H37            7.2205     8.6106    -0.0448 H       
  38 H38            3.8904     9.8314     1.0074 H       
  39 H39           -1.7319    11.4465     0.2544 H       
  40 H40            0.2242    12.9079     0.7241 H       
  41 H41            2.4587    11.8644     0.9776 H       
  42 H42           -1.4120     9.0190     0.0548 H       
@<TRIPOS>BOND
   1    1    2 ar
   2    1    5 ar
   3    1   26 1
   4    2    3 ar
   5    2   27 1
   6    3    4 ar
   7    3   28 1
   8    4    7 ar
   9    4   29 1
  10    5    7 ar
  11    5    6 1
  12    6    9 1
  13    6   15 1
  14    7    8 1
  15    8    9 1
  16    9   10 2
  17   10   11 1
  18   10   14 1
  19   11   12 am
  20   11   16 2
  21   12   13 1
  22   12   17 1
  23   13   14 1
  24   13   19 2
  25   15   30 1
  26   15   31 1
  27   15   32 1
  28   17   18 1
  29   17   33 1
  30   17   34 1
  31   18   35 1
  32   18   36 1
  33   18   37 1
  34   19   20 1
  35   19   38 1
  36   20   24 ar
  37   20   23 ar
  38   21   22 ar
  39   21   25 ar
  40   21   39 1
  41   22   23 ar
  42   22   40 1
  43   23   41 1
  44   24   25 ar
  45   25   42 1

#	End of record

