#	Name: ASD02508116
#	Creating user name:	WinNT
#	Creation time:	15. 06. 2019 20:23

#	Modifying user name:	WinNT
#	Modification time:	15. 06. 2019 20:23

#	Program:	/corina/corina34_cracker 3.40 0067  02.08.2006

@<TRIPOS>MOLECULE
ASD02508116
  43   45    0    0    0
SMALL
NO_CHARGES


@<TRIPOS>ATOM
   1 C1             0.3657     1.8580     0.2457 C.ar    
   2 C2             0.2167     0.4647     0.3168 C.ar    
   3 C3             1.6557     2.3638     0.0799 C.ar    
   4 C4             2.7548     1.5297    -0.0121 C.ar    
   5 C5             2.5863     0.1542     0.0604 C.ar    
   6 C6             1.3081    -0.3665     0.2260 C.ar    
   7 N7            -0.6245     2.8250     0.3147 N.am    
   8 C8            -0.2706     4.1106     0.2257 C.2     
   9 S9             1.4899     4.1243     0.0303 S.3     
  10 N10            3.6911    -0.6993    -0.0320 N.am    
  11 S11            3.8694    -1.9426     1.0472 S.o2    
  12 C12            4.0655    -1.2233     2.6437 C.ar    
  13 C13            5.1957    -0.4722     2.9328 C.ar    
  14 O14           -1.0093     5.0771     0.2675 O.2     
  15 O15            2.6292    -2.6360     1.0691 O.2     
  16 O16            5.1054    -2.5704     0.7354 O.2     
  17 C17            3.0916    -1.4021     3.6067 C.ar    
  18 C18            3.2448    -0.8375     4.8598 C.ar    
  19 C19            4.3724    -0.0931     5.1520 C.ar    
  20 C20            5.3472     0.0927     4.1906 C.ar    
  21 O21            6.1530    -0.2906     1.9854 O.3     
  22 C22            7.3388     0.3993     2.3851 C.3     
  23 C23            2.1804    -1.0337     5.9084 C.3     
  24 C24           -2.0298     2.4460     0.4811 C.3     
  25 C25           -2.3645     2.3702     1.9721 C.3     
  26 H26           -0.7678     0.0397     0.4449 H       
  27 H27            3.7422     1.9479    -0.1406 H       
  28 H28            1.1707    -1.4362     0.2831 H       
  29 H29            4.3525    -0.5628    -0.7282 H       
  30 H30            2.2096    -1.9830     3.3808 H       
  31 H31            4.4895     0.3472     6.1312 H       
  32 H32            6.2280     0.6743     4.4194 H       
  33 H33            7.8600    -0.1839     3.1443 H       
  34 H34            7.9892     0.5346     1.5210 H       
  35 H35            7.0718     1.3734     2.7950 H       
  36 H36            2.4006    -1.9314     6.4861 H       
  37 H37            2.1612    -0.1698     6.5727 H       
  38 H38            1.2095    -1.1419     5.4249 H       
  39 H39           -2.6661     3.1910     0.0034 H       
  40 H40           -2.2007     1.4730     0.0204 H       
  41 H41           -1.7282     1.6252     2.4499 H       
  42 H42           -2.1936     3.3432     2.4328 H       
  43 H43           -3.4100     2.0882     2.0960 H       
@<TRIPOS>BOND
   1    1    2 ar
   2    1    3 ar
   3    1    7 1
   4    2    6 ar
   5    2   26 1
   6    3    4 ar
   7    3    9 1
   8    4    5 ar
   9    4   27 1
  10    5    6 ar
  11    5   10 1
  12    6   28 1
  13    7    8 am
  14    7   24 1
  15    8    9 1
  16    8   14 2
  17   10   11 am
  18   10   29 1
  19   11   12 1
  20   11   15 2
  21   11   16 2
  22   12   13 ar
  23   12   17 ar
  24   13   21 1
  25   13   20 ar
  26   17   18 ar
  27   17   30 1
  28   18   19 ar
  29   18   23 1
  30   19   20 ar
  31   19   31 1
  32   20   32 1
  33   21   22 1
  34   22   33 1
  35   22   34 1
  36   22   35 1
  37   23   36 1
  38   23   37 1
  39   23   38 1
  40   24   25 1
  41   24   39 1
  42   24   40 1
  43   25   41 1
  44   25   42 1
  45   25   43 1

#	End of record

