#	Name: ASD06170304
#	Creating user name:	WinNT
#	Creation time:	15. 06. 2019 21:05

#	Modifying user name:	WinNT
#	Modification time:	15. 06. 2019 21:05

#	Program:	/corina/corina34_cracker 3.40 0067  02.08.2006

@<TRIPOS>MOLECULE
ASD06170304
  70   75    0    0    0
SMALL
NO_CHARGES


@<TRIPOS>ATOM
   1 N1             0.0800     0.7793    -0.1928 N.am    
   2 N2             0.3654    -0.5827    -0.0591 N.pl3   
   3 C3             1.6748    -0.8015    -0.2853 C.2     
   4 C4             2.2782     0.4074    -0.5720 C.2     
   5 C5             1.2205     1.4284    -0.5068 C.2     
   6 C6             3.6959     0.6301    -0.8805 C.2     
   7 O7             4.4690    -0.3095    -0.9008 O.2     
   8 N8             4.1413     1.8751    -1.1413 N.am    
   9 C9            -0.6146    -1.6184     0.2773 C.3     
  10 C10            2.3655    -2.1399    -0.2339 C.3     
  11 C11            5.5149     2.1145    -1.2707 C.ar    
  12 C12            6.3583     1.1012    -1.7065 C.ar    
  13 C13            7.7143     1.3387    -1.8344 C.ar    
  14 C14            8.2318     2.5909    -1.5267 C.ar    
  15 C15            7.3885     3.6020    -1.0910 C.ar    
  16 C16            6.0331     3.3670    -0.9686 C.ar    
  17 O17            9.5656     2.8249    -1.6523 O.3     
  18 N18           11.0947     3.1891    -5.4652 N.ar    
  19 C19           11.9168     3.4044    -4.4313 C.ar    
  20 C20           11.4314     3.2895    -3.1058 C.ar    
  21 C21           10.0753     2.9468    -2.9024 C.ar    
  22 C22            9.2839     2.7392    -4.0187 C.ar    
  23 C23            9.8341     2.8699    -5.2872 C.ar    
  24 O24            1.3491     2.6232    -0.6984 O.2     
  25 C25           -1.1780     1.3695    -0.0337 C.ar    
  26 C26           -1.9891     1.0025     1.0323 C.ar    
  27 C27           12.2950     3.5148    -2.0239 C.ar    
  28 C28           13.5959     3.8429    -2.2525 C.ar    
  29 C29           14.0856     3.9591    -3.5566 C.ar    
  30 C30           13.2630     3.7446    -4.6393 C.ar    
  31 C31           16.1912     4.4982    -2.5947 C.3     
  32 O32           15.3881     4.2878    -3.7578 O.3     
  33 C33           -1.1125    -2.2856    -1.0063 C.3     
  34 C34           -2.1455    -3.3791    -0.6707 C.3     
  35 C35           -3.2306     1.5874     1.1868 C.ar    
  36 C36           -3.6666     2.5372     0.2813 C.ar    
  37 C37           -2.8615     2.9049    -0.7812 C.ar    
  38 C38           -1.6165     2.3279    -0.9382 C.ar    
  39 F39            8.5360     0.3534    -2.2579 F       
  40 O40           -1.8065    -1.3267    -1.8277 O.3     
  41 C41           -2.8883    -2.0570    -2.4447 C.3     
  42 N42           -3.3848    -2.9526    -1.3679 N.3     
  43 H43            3.5104     2.6053    -1.2394 H       
  44 H44           -0.1474    -2.3663     0.9180 H       
  45 H45           -1.4563    -1.1657     0.8015 H       
  46 H46            2.3361    -2.6021    -1.2206 H       
  47 H47            3.4026    -2.0020     0.0720 H       
  48 H48            1.8574    -2.7836     0.4842 H       
  49 H49            5.9553     0.1281    -1.9452 H       
  50 H50            7.7913     4.5750    -0.8513 H       
  51 H51            5.3765     4.1563    -0.6335 H       
  52 H52            8.2430     2.4755    -3.9038 H       
  53 H53            9.2072     2.7052    -6.1511 H       
  54 H54           -1.6495     0.2602     1.7395 H       
  55 H55           11.9284     3.4284    -1.0117 H       
  56 H56           14.2575     4.0159    -1.4166 H       
  57 H57           13.6511     3.8369    -5.6430 H       
  58 H58           15.7710     5.3134    -2.0057 H       
  59 H59           16.2081     3.5880    -1.9953 H       
  60 H60           17.2071     4.7537    -2.8960 H       
  61 H61           -0.2747    -2.7157    -1.5552 H       
  62 H62           -1.8113    -4.3458    -1.0474 H       
  63 H63           -2.3122    -3.4268     0.4054 H       
  64 H64           -3.8618     1.3025     2.0155 H       
  65 H65           -4.6382     2.9927     0.4039 H       
  66 H66           -3.2049     3.6470    -1.4867 H       
  67 H67           -0.9882     2.6155    -1.7682 H       
  68 H68           -3.6750    -1.3744    -2.7659 H       
  69 H69           -2.5215    -2.6418    -3.2883 H       
  70 H70           -3.8736    -3.7462    -1.7543 H       
@<TRIPOS>BOND
   1    1    2 1
   2    1    5 am
   3    1   25 1
   4    2    3 1
   5    2    9 1
   6    3    4 2
   7    3   10 1
   8    4    5 1
   9    4    6 1
  10    5   24 2
  11    6    7 2
  12    6    8 am
  13    8   11 1
  14    8   43 1
  15    9   33 1
  16    9   44 1
  17    9   45 1
  18   10   46 1
  19   10   47 1
  20   10   48 1
  21   11   12 ar
  22   11   16 ar
  23   12   13 ar
  24   12   49 1
  25   13   14 ar
  26   13   39 1
  27   14   15 ar
  28   14   17 1
  29   15   16 ar
  30   15   50 1
  31   16   51 1
  32   17   21 1
  33   18   19 ar
  34   18   23 ar
  35   19   20 ar
  36   19   30 ar
  37   20   21 ar
  38   20   27 ar
  39   21   22 ar
  40   22   23 ar
  41   22   52 1
  42   23   53 1
  43   25   26 ar
  44   25   38 ar
  45   26   35 ar
  46   26   54 1
  47   27   28 ar
  48   27   55 1
  49   28   29 ar
  50   28   56 1
  51   29   30 ar
  52   29   32 1
  53   30   57 1
  54   31   32 1
  55   31   58 1
  56   31   59 1
  57   31   60 1
  58   33   34 1
  59   33   40 1
  60   33   61 1
  61   34   42 1
  62   34   62 1
  63   34   63 1
  64   35   36 ar
  65   35   64 1
  66   36   37 ar
  67   36   65 1
  68   37   38 ar
  69   37   66 1
  70   38   67 1
  71   40   41 1
  72   41   42 1
  73   41   68 1
  74   41   69 1
  75   42   70 1

#	End of record

