#	Name: ASD01914982
#	Creating user name:	WinNT
#	Creation time:	15. 06. 2019 20:04

#	Modifying user name:	WinNT
#	Modification time:	15. 06. 2019 20:04

#	Program:	/corina/corina34_cracker 3.40 0067  02.08.2006

@<TRIPOS>MOLECULE
ASD01914982
  44   47    0    0    0
SMALL
NO_CHARGES


@<TRIPOS>ATOM
   1 C1            -0.2252     1.4576    -1.1232 C.ar    
   2 C2            -0.2364     0.0835    -1.2787 C.ar    
   3 C3             0.9392    -0.6375    -1.1520 C.ar    
   4 C4             2.1264     0.0157    -0.8698 C.ar    
   5 C5             2.1411     1.3891    -0.7133 C.ar    
   6 C6             0.9663     2.1134    -0.8400 C.ar    
   7 O7             0.9799     3.4648    -0.6871 O.3     
   8 C8             2.2405     4.0722    -0.3971 C.3     
   9 C9             2.0609     5.5624    -0.2628 C.2     
  10 C10            0.8536     6.2622    -0.3922 C.2     
  11 N11            3.0068     6.4333     0.0015 N.2     
  12 C12            1.1807     7.5733    -0.1932 C.2     
  13 C13            0.3637     8.7963    -0.1945 C.2     
  14 N14            2.5343     7.6167     0.0589 N.pl3   
  15 C15            3.2116     8.8852     0.3537 C.3     
  16 C16            2.4870    10.0222    -0.3654 C.3     
  17 N17            1.0393     9.9709    -0.1750 N.am    
  18 O18           -0.8519     8.7557    -0.2125 O.2     
  19 C19            0.3351    11.1614     0.0375 C.ar    
  20 C20           -0.9495    12.5853     1.4774 C.ar    
  21 C21           -0.2554    11.4096     1.2697 C.ar    
  22 C22            0.2307    12.0989    -0.9817 C.ar    
  23 C23           -0.4643    13.2734    -0.7697 C.ar    
  24 C24           -1.0565    13.5167     0.4582 C.ar    
  25 F25           -1.7359    14.6662     0.6634 F       
  26 C26            3.1885     9.1381     1.8625 C.3     
  27 F27            0.9271    -1.9799    -1.3036 F       
  28 F28           -1.3707     2.1620    -1.2522 F       
  29 H29           -1.1621    -0.4275    -1.4986 H       
  30 H30            3.0422    -0.5482    -0.7713 H       
  31 H31            3.0680     1.8976    -0.4924 H       
  32 H32            2.6324     3.6679     0.5362 H       
  33 H33            2.9399     3.8619    -1.2062 H       
  34 H34           -0.1235     5.8534    -0.6034 H       
  35 H35            4.2441     8.8355     0.0080 H       
  36 H36            2.8586    10.9735     0.0153 H       
  37 H37            2.7063     9.9615    -1.4314 H       
  38 H38           -1.4092    12.7786     2.4354 H       
  39 H39           -0.1722    10.6835     2.0648 H       
  40 H40            0.6929    11.9098    -1.9393 H       
  41 H41           -0.5458    14.0027    -1.5621 H       
  42 H42            3.7021     8.3247     2.3751 H       
  43 H43            3.6915    10.0801     2.0807 H       
  44 H44            2.1555     9.1896     2.2065 H       
@<TRIPOS>BOND
   1    1    2 ar
   2    1    6 ar
   3    1   28 1
   4    2    3 ar
   5    2   29 1
   6    3    4 ar
   7    3   27 1
   8    4    5 ar
   9    4   30 1
  10    5    6 ar
  11    5   31 1
  12    6    7 1
  13    7    8 1
  14    8    9 1
  15    8   32 1
  16    8   33 1
  17    9   11 2
  18    9   10 1
  19   10   12 2
  20   10   34 1
  21   11   14 1
  22   12   14 1
  23   12   13 1
  24   13   17 am
  25   13   18 2
  26   14   15 1
  27   15   16 1
  28   15   26 1
  29   15   35 1
  30   16   17 1
  31   16   36 1
  32   16   37 1
  33   17   19 1
  34   19   22 ar
  35   19   21 ar
  36   20   21 ar
  37   20   24 ar
  38   20   38 1
  39   21   39 1
  40   22   23 ar
  41   22   40 1
  42   23   24 ar
  43   23   41 1
  44   24   25 1
  45   26   42 1
  46   26   43 1
  47   26   44 1

#	End of record

