#	Name: ASD03092339
#	Creating user name:	WinNT
#	Creation time:	15. 06. 2019 20:32

#	Modifying user name:	WinNT
#	Modification time:	15. 06. 2019 20:32

#	Program:	/corina/corina34_cracker 3.40 0067  02.08.2006

@<TRIPOS>MOLECULE
ASD03092339
  62   66    0    0    0
SMALL
NO_CHARGES


@<TRIPOS>ATOM
   1 O1             0.6999     0.3266     0.0841 O.3     
   2 C2             0.9212    -1.0955     0.0506 C.3     
   3 O3             2.1819    -1.2304    -0.6316 O.3     
   4 C4             2.8551    -0.0684    -0.3851 C.ar    
   5 C5             1.9413     0.8902     0.0559 C.ar    
   6 C6             4.1923     0.2556    -0.5023 C.ar    
   7 C7             4.6282     1.5434    -0.1788 C.ar    
   8 C8             3.7088     2.4979     0.2620 C.ar    
   9 C9             2.3756     2.1690     0.3770 C.ar    
  10 C10            6.0568     1.8938    -0.3022 C.2     
  11 O11            6.8559     1.0616    -0.6857 O.2     
  12 N12            6.4753     3.1363     0.0103 N.am    
  13 F13            1.0074    -1.6102     1.3487 F       
  14 F14           -0.0962    -1.7345    -0.6661 F       
  15 C15            7.8932     3.4840    -0.1122 C.3     
  16 S16            8.3811     7.4325     0.2998 S.3     
  17 C17            8.4203     6.5612     1.7700 C.2     
  18 N18            8.2549     5.2922     1.5464 N.2     
  19 C19            8.0949     4.9210     0.2947 C.2     
  20 C20            8.1267     5.9358    -0.5942 C.2     
  21 C21            8.6891     6.3072    -4.2888 C.ar    
  22 C22            8.8682     6.4492    -2.9298 C.ar    
  23 C23            7.9748     5.8135    -2.0571 C.ar    
  24 C24            6.9333     5.0582    -2.6125 C.ar    
  25 C25            6.8294     4.9709    -3.9839 C.ar    
  26 N26            7.6937     5.5858    -4.7700 N.ar    
  27 C27            5.7143     4.1620    -4.5947 C.3     
  28 C28            9.6387     6.9904    -5.2388 C.3     
  29 N29            8.6025     7.1265     3.0190 N.3     
  30 C30            8.7590     8.5849     2.9195 C.3     
  31 C31            9.0172     9.1613     4.3141 C.3     
  32 O32            7.9446     8.7899     5.1841 O.3     
  33 C33            7.7643     7.3763     5.3048 C.3     
  34 C34            7.4934     6.7818     3.9202 C.3     
  35 C35            6.5763     7.0895     6.2253 C.3     
  36 C36            9.1012    10.6866     4.2290 C.3     
  37 H37            4.9003    -0.4852    -0.8432 H       
  38 H38            4.0428     3.4939     0.5128 H       
  39 H39            1.6662     2.9086     0.7178 H       
  40 H40            5.8378     3.8002     0.3162 H       
  41 H41            8.4834     2.8365     0.5362 H       
  42 H42            8.2119     3.3510    -1.1460 H       
  43 H43            9.6849     7.0406    -2.5432 H       
  44 H44            6.2230     4.5520    -1.9756 H       
  45 H45            4.8447     4.8008    -4.7496 H       
  46 H46            6.0419     3.7560    -5.5517 H       
  47 H47            5.4495     3.3441    -3.9246 H       
  48 H48           10.4725     6.3243    -5.4607 H       
  49 H49            9.1145     7.2365    -6.1622 H       
  50 H50           10.0161     7.9046    -4.7805 H       
  51 H51            9.6014     8.8170     2.2680 H       
  52 H52            7.8488     9.0213     2.5081 H       
  53 H53            9.9553     8.7657     4.7035 H       
  54 H54            8.6659     6.9288     5.7230 H       
  55 H55            6.5630     7.1894     3.5248 H       
  56 H56            7.4120     5.6977     3.9992 H       
  57 H57            5.6750     7.5359     5.8051 H       
  58 H58            6.4394     6.0120     6.3169 H       
  59 H59            6.7681     7.5164     7.2097 H       
  60 H60            8.1619    11.0812     3.8413 H       
  61 H61            9.2850    11.0964     5.2221 H       
  62 H62            9.9164    10.9690     3.5628 H       
@<TRIPOS>BOND
   1    1    2 1
   2    1    5 1
   3    2    3 1
   4    2   13 1
   5    2   14 1
   6    3    4 1
   7    4    5 ar
   8    4    6 ar
   9    5    9 ar
  10    6    7 ar
  11    6   37 1
  12    7    8 ar
  13    7   10 1
  14    8    9 ar
  15    8   38 1
  16    9   39 1
  17   10   11 2
  18   10   12 am
  19   12   15 1
  20   12   40 1
  21   15   19 1
  22   15   41 1
  23   15   42 1
  24   16   17 1
  25   16   20 1
  26   17   18 2
  27   17   29 1
  28   18   19 1
  29   19   20 2
  30   20   23 1
  31   21   22 ar
  32   21   26 ar
  33   21   28 1
  34   22   23 ar
  35   22   43 1
  36   23   24 ar
  37   24   25 ar
  38   24   44 1
  39   25   26 ar
  40   25   27 1
  41   27   45 1
  42   27   46 1
  43   27   47 1
  44   28   48 1
  45   28   49 1
  46   28   50 1
  47   29   30 1
  48   29   34 1
  49   30   31 1
  50   30   51 1
  51   30   52 1
  52   31   32 1
  53   31   36 1
  54   31   53 1
  55   32   33 1
  56   33   34 1
  57   33   35 1
  58   33   54 1
  59   34   55 1
  60   34   56 1
  61   35   57 1
  62   35   58 1
  63   35   59 1
  64   36   60 1
  65   36   61 1
  66   36   62 1

#	End of record

