#	Name: ASD08070202
#	Creating user name:	WinNT
#	Creation time:	15. 06. 2019 21:14

#	Modifying user name:	WinNT
#	Modification time:	15. 06. 2019 21:14

#	Program:	/corina/corina34_cracker 3.40 0067  02.08.2006

@<TRIPOS>MOLECULE
ASD08070202
  38   39    0    0    0
SMALL
NO_CHARGES


@<TRIPOS>ATOM
   1 C1            -0.0169     1.3925     0.0097 C.ar    
   2 C2             0.0021    -0.0041     0.0020 C.ar    
   3 C3            -1.2655    -0.7626     0.0096 C.2     
   4 O4            -2.3276    -0.1714     0.0225 O.2     
   5 N5            -1.2445    -2.1102     0.0021 N.am    
   6 C6            -2.5015    -2.8625     0.0096 C.3     
   7 C7            -2.2735    -4.2429    -0.6096 C.3     
   8 C8            -3.5864    -5.0285    -0.6018 C.3     
   9 C9             1.2234    -0.6807    -0.0133 C.ar    
  10 C10            2.4034     0.0322    -0.0207 C.ar    
  11 C11            2.3788     1.4183    -0.0126 C.ar    
  12 C12            1.1686     2.0953     0.0022 C.ar    
  13 C13            1.1498     3.6021     0.0104 C.3     
  14 C14           -2.9905    -3.0242     1.4503 C.3     
  15 C15           -4.3034    -3.8099     1.4581 C.3     
  16 C16           -4.0754    -5.1903     0.8389 C.3     
  17 F17           -0.1749     4.0518     0.0250 F       
  18 F18            1.8138     4.0705     1.1492 F       
  19 F19            1.7929     4.0828    -1.1352 F       
  20 F20            3.5381     2.1120    -0.0195 F       
  21 C21           -5.3882    -5.9759     0.8467 C.3     
  22 H22           -0.9588     1.9207     0.0170 H       
  23 H23           -0.3970    -2.5820    -0.0082 H       
  24 H24           -3.2509    -2.3236    -0.5701 H       
  25 H25           -1.9251    -4.1277    -1.6360 H       
  26 H26           -1.5241    -4.7818    -0.0299 H       
  27 H27           -4.3357    -4.4896    -1.1815 H       
  28 H28           -3.4239    -6.0120    -1.0429 H       
  29 H29            1.2436    -1.7605    -0.0189 H       
  30 H30            3.3486    -0.4901    -0.0325 H       
  31 H31           -2.2411    -3.5632     2.0300 H       
  32 H32           -3.1530    -2.0408     1.8914 H       
  33 H33           -4.6518    -3.9251     2.4845 H       
  34 H34           -5.0528    -3.2709     0.8784 H       
  35 H35           -3.3260    -5.7292     1.4186 H       
  36 H36           -6.1376    -5.4370     0.2670 H       
  37 H37           -5.2257    -6.9594     0.4056 H       
  38 H38           -5.7366    -6.0912     1.8731 H       
@<TRIPOS>BOND
   1    1    2 ar
   2    1   12 ar
   3    1   22 1
   4    2    3 1
   5    2    9 ar
   6    3    4 2
   7    3    5 am
   8    5    6 1
   9    5   23 1
  10    6    7 1
  11    6   14 1
  12    6   24 1
  13    7    8 1
  14    7   25 1
  15    7   26 1
  16    8   16 1
  17    8   27 1
  18    8   28 1
  19    9   10 ar
  20    9   29 1
  21   10   11 ar
  22   10   30 1
  23   11   12 ar
  24   11   20 1
  25   12   13 1
  26   13   17 1
  27   13   18 1
  28   13   19 1
  29   14   15 1
  30   14   31 1
  31   14   32 1
  32   15   16 1
  33   15   33 1
  34   15   34 1
  35   16   21 1
  36   16   35 1
  37   21   36 1
  38   21   37 1
  39   21   38 1

#	End of record

