#	Name: ASD01028664
#	Creating user name:	WinNT
#	Creation time:	15. 06. 2019 18:57

#	Modifying user name:	WinNT
#	Modification time:	15. 06. 2019 18:57

#	Program:	/corina/corina34_cracker 3.40 0067  02.08.2006

@<TRIPOS>MOLECULE
ASD01028664
  28   30    0    0    0
SMALL
NO_CHARGES


@<TRIPOS>ATOM
   1 C1            -0.0173     1.4248     0.0099 C.3     
   2 O2             0.0021    -0.0041     0.0020 O.3     
   3 S3             3.3179     3.4332    -0.0103 S.3     
   4 N4             1.6339     3.2248     0.0043 N.2     
   5 C5             1.3965     1.9464    -0.0008 C.2     
   6 C6             2.4637     1.0827    -0.0157 C.2     
   7 C7             3.6943     1.7012    -0.0236 C.2     
   8 C8             7.5195    -0.1090    -0.0717 C.2     
   9 C9             7.4184     1.2955    -0.0625 C.2     
  10 C10            6.1879     1.8711    -0.0469 C.2     
  11 C11            5.0286     1.0640    -0.0404 C.2     
  12 N12            5.1227    -0.2489    -0.0487 N.2     
  13 N13            6.3739    -0.8686    -0.0646 N.pl3   
  14 N14            8.0904    -2.1599    -0.0921 N.2     
  15 N15            8.5382    -0.9529    -0.0920 N.2     
  16 C16            6.7807    -2.1568    -0.0766 C.2     
  17 C17            5.8884    -3.3713    -0.0749 C.3     
  18 N18            5.5843    -3.7575    -1.4592 N.3     
  19 H19           -0.5445     1.7859    -0.8732 H       
  20 H20           -0.5275     1.7763     0.9067 H       
  21 H21           -0.8759    -0.4094     0.0082 H       
  22 H22            2.3480     0.0089    -0.0207 H       
  23 H23            8.3082     1.9076    -0.0675 H       
  24 H24            6.0959     2.9471    -0.0394 H       
  25 H25            6.3957    -4.1942     0.4288 H       
  26 H26            4.9614    -3.1404     0.4499 H       
  27 H27            4.9869    -4.5702    -1.4849 H       
  28 H28            5.1717    -2.9892    -1.9666 H       
@<TRIPOS>BOND
   1    1    2 1
   2    1    5 1
   3    1   19 1
   4    1   20 1
   5    2   21 1
   6    3    4 1
   7    3    7 1
   8    4    5 2
   9    5    6 1
  10    6    7 2
  11    6   22 1
  12    7   11 1
  13    8    9 1
  14    8   13 1
  15    8   15 2
  16    9   10 2
  17    9   23 1
  18   10   11 1
  19   10   24 1
  20   11   12 2
  21   12   13 1
  22   13   16 1
  23   14   15 1
  24   14   16 2
  25   16   17 1
  26   17   18 1
  27   17   25 1
  28   17   26 1
  29   18   27 1
  30   18   28 1

#	End of record

