#	Name: ASD01913162
#	Creating user name:	WinNT
#	Creation time:	15. 06. 2019 20:01

#	Modifying user name:	WinNT
#	Modification time:	15. 06. 2019 20:01

#	Program:	/corina/corina34_cracker 3.40 0067  02.08.2006

@<TRIPOS>MOLECULE
ASD01913162
  51   53    0    0    0
SMALL
NO_CHARGES


@<TRIPOS>ATOM
   1 C1             0.1841     2.0287     0.1090 C.ar    
   2 C2             0.1176     0.6491     0.1736 C.ar    
   3 C3             1.2778    -0.1007     0.1652 C.ar    
   4 C4             2.5105     0.5317     0.0918 C.ar    
   5 C5             2.5745     1.9160     0.0271 C.ar    
   6 C6             1.4114     2.6613     0.0358 C.ar    
   7 O7             3.6533    -0.2037     0.0839 O.3     
   8 C8             4.8863     0.5145     0.0066 C.3     
   9 C9             6.0536    -0.4746     0.0093 C.3     
  10 C10            7.3539     0.2827    -0.0722 C.2     
  11 N11            8.5238    -0.3863    -0.0842 N.am    
  12 C12            9.8042     0.3332    -0.1632 C.3     
  13 C13           10.7159    -0.1706     0.9607 C.3     
  14 N14           10.8199    -1.6339     0.8836 N.3     
  15 C15            9.5150    -2.2730     1.0996 C.3     
  16 C16            8.5543    -1.8550    -0.0124 C.3     
  17 O17            7.3476     1.4943    -0.1270 O.2     
  18 C18           11.7693    -2.1165     1.7873 C.ar    
  19 C19           11.5683    -1.9681     3.1536 C.ar    
  20 C20           12.5090    -2.4469     4.0445 C.ar    
  21 C21           13.6499    -3.0729     3.5775 C.ar    
  22 C22           13.8533    -3.2223     2.2177 C.ar    
  23 C23           12.9142    -2.7511     1.3217 C.ar    
  24 C24           13.1364    -2.9148    -0.1598 C.3     
  25 C25           15.0986    -3.9049     1.7134 C.3     
  26 H26           -0.7243     2.6129     0.1111 H       
  27 H27           -0.8422     0.1573     0.2310 H       
  28 H28            1.2254    -1.1782     0.2160 H       
  29 H29            3.5329     2.4107    -0.0297 H       
  30 H30            1.4607     3.7390    -0.0145 H       
  31 H31            4.9086     1.1003    -0.9123 H       
  32 H32            4.9729     1.1811     0.8647 H       
  33 H33            6.0313    -1.0605     0.9282 H       
  34 H34            5.9670    -1.1412    -0.8488 H       
  35 H35           10.2728     0.1417    -1.1285 H       
  36 H36            9.6312     1.4027    -0.0427 H       
  37 H37           11.7065     0.2708     0.8509 H       
  38 H38           10.2954     0.1139     1.9252 H       
  39 H39            9.6347    -3.3564     1.0906 H       
  40 H40            9.1112    -1.9592     2.0622 H       
  41 H41            7.5555    -2.2334     0.2052 H       
  42 H42            8.9009    -2.2551    -0.9653 H       
  43 H43           10.6776    -1.4786     3.5189 H       
  44 H44           12.3532    -2.3319     5.1070 H       
  45 H45           14.3842    -3.4458     4.2763 H       
  46 H46           12.7987    -3.9034    -0.4708 H       
  47 H47           12.5731    -2.1525    -0.6981 H       
  48 H48           14.1980    -2.8068    -0.3821 H       
  49 H49           14.9135    -4.9749     1.6187 H       
  50 H50           15.3686    -3.4953     0.7400 H       
  51 H51           15.9145    -3.7381     2.4167 H       
@<TRIPOS>BOND
   1    1    2 ar
   2    1    6 ar
   3    1   26 1
   4    2    3 ar
   5    2   27 1
   6    3    4 ar
   7    3   28 1
   8    4    5 ar
   9    4    7 1
  10    5    6 ar
  11    5   29 1
  12    6   30 1
  13    7    8 1
  14    8    9 1
  15    8   31 1
  16    8   32 1
  17    9   10 1
  18    9   33 1
  19    9   34 1
  20   10   11 am
  21   10   17 2
  22   11   12 1
  23   11   16 1
  24   12   13 1
  25   12   35 1
  26   12   36 1
  27   13   14 1
  28   13   37 1
  29   13   38 1
  30   14   15 1
  31   14   18 1
  32   15   16 1
  33   15   39 1
  34   15   40 1
  35   16   41 1
  36   16   42 1
  37   18   19 ar
  38   18   23 ar
  39   19   20 ar
  40   19   43 1
  41   20   21 ar
  42   20   44 1
  43   21   22 ar
  44   21   45 1
  45   22   23 ar
  46   22   25 1
  47   23   24 1
  48   24   46 1
  49   24   47 1
  50   24   48 1
  51   25   49 1
  52   25   50 1
  53   25   51 1

#	End of record

