#	Name: ASD03731585
#	Creating user name:	WinNT
#	Creation time:	15. 06. 2019 20:46

#	Modifying user name:	WinNT
#	Modification time:	15. 06. 2019 20:46

#	Program:	/corina/corina34_cracker 3.40 0067  02.08.2006

@<TRIPOS>MOLECULE
ASD03731585
  36   37    0    0    0
SMALL
NO_CHARGES


@<TRIPOS>ATOM
   1 C1             0.3758     1.0911     1.9809 C.2     
   2 C2             0.2921    -0.2835     1.4538 C.ar    
   3 C3             1.3768    -0.8381     0.7637 C.ar    
   4 C4             1.2922    -2.1267     0.2722 C.ar    
   5 C5             0.1322    -2.8695     0.4631 C.ar    
   6 C6            -0.9454    -2.3198     1.1482 C.ar    
   7 C7            -0.8681    -1.0388     1.6465 C.ar    
   8 O8             1.3879     1.7448     1.8166 O.2     
   9 N9            -0.6716     1.6249     2.6400 N.am    
  10 S10           -0.5777     3.1687     3.2320 S.o2    
  11 O11           -1.8291     3.3750     3.8729 O.2     
  12 O12            0.6358     3.1873     3.9712 O.2     
  13 C13           -0.4393     4.2123     1.7548 C.3     
  14 F14            2.3366    -2.6651    -0.3946 F       
  15 F15            2.5030    -0.1152     0.5786 F       
  16 O16            0.0517    -4.1351    -0.0212 O.3     
  17 C17           -1.1356    -4.7867     0.0907 C.ar    
  18 C18           -2.0898    -4.6692    -0.9101 C.ar    
  19 C19           -3.2956    -5.3326    -0.7946 C.ar    
  20 C20           -3.5528    -6.1139     0.3184 C.ar    
  21 C21           -2.6029    -6.2323     1.3173 C.ar    
  22 C22           -1.3932    -5.5749     1.2029 C.ar    
  23 C23           -4.3321    -5.2054    -1.8812 C.3     
  24 F24           -3.8467    -4.3703    -2.8932 F       
  25 F25           -4.6085    -6.4697    -2.4124 F       
  26 F26           -5.5033    -4.6580    -1.3465 F       
  27 Cl27          -5.0697    -6.9459     0.4616 Cl      
  28 H28           -1.8440    -2.9010     1.2937 H       
  29 H29           -1.7052    -0.6160     2.1821 H       
  30 H30           -1.4804     1.1049     2.7677 H       
  31 H31           -1.3183     4.0704     1.1260 H       
  32 H32           -0.3717     5.2583     2.0539 H       
  33 H33            0.4551     3.9354     1.1967 H       
  34 H34           -1.8897    -4.0591    -1.7785 H       
  35 H35           -2.8056    -6.8425     2.1850 H       
  36 H36           -0.6502    -5.6712     1.9807 H       
@<TRIPOS>BOND
   1    1    2 1
   2    1    8 2
   3    1    9 am
   4    2    3 ar
   5    2    7 ar
   6    3    4 ar
   7    3   15 1
   8    4    5 ar
   9    4   14 1
  10    5    6 ar
  11    5   16 1
  12    6    7 ar
  13    6   28 1
  14    7   29 1
  15    9   10 am
  16    9   30 1
  17   10   11 2
  18   10   12 2
  19   10   13 1
  20   13   31 1
  21   13   32 1
  22   13   33 1
  23   16   17 1
  24   17   18 ar
  25   17   22 ar
  26   18   19 ar
  27   18   34 1
  28   19   20 ar
  29   19   23 1
  30   20   21 ar
  31   20   27 1
  32   21   22 ar
  33   21   35 1
  34   22   36 1
  35   23   24 1
  36   23   25 1
  37   23   26 1

#	End of record

