#	Name: ASD03091026
#	Creating user name:	WinNT
#	Creation time:	15. 06. 2019 20:29

#	Modifying user name:	WinNT
#	Modification time:	15. 06. 2019 20:29

#	Program:	/corina/corina34_cracker 3.40 0067  02.08.2006

@<TRIPOS>MOLECULE
ASD03091026
  49   53    0    0    0
SMALL
NO_CHARGES


@<TRIPOS>ATOM
   1 N1            -0.0537     1.3692    -0.0556 N.am    
   2 C2            -0.0142    -0.0044    -0.0265 C.2     
   3 N3            -0.9191    -0.7352     0.5203 N.2     
   4 C4            -2.0492    -0.3137     1.1565 C.ar    
   5 C5            -2.5094     0.9998     1.0044 C.ar    
   6 S6            -1.5690     2.0733    -0.0343 S.o2    
   7 O7            -1.4473     3.3123     0.6508 O.2     
   8 C8            -2.7697    -1.1881     1.9746 C.ar    
   9 C9            -3.9097    -0.7519     2.6143 C.ar    
  10 C10           -4.3539     0.5553     2.4540 C.ar    
  11 C11           -3.6430     1.4337     1.6403 C.ar    
  12 N12           -5.5119     0.9871     3.1077 N.3     
  13 C13           -6.6917     0.8352     2.2447 C.3     
  14 C14           -5.3749     2.3778     3.5568 C.3     
  15 C15           -6.5315     2.8178     4.4407 C.3     
  16 N16           -7.7999     2.7723     3.6973 N.3     
  17 C17           -7.7340     3.1277     2.2960 C.3     
  18 C18           -6.9234     2.1292     1.4862 C.3     
  19 C19           -7.8938     0.3879     3.0629 C.3     
  20 C20           -8.4734     1.4868     3.9306 C.3     
  21 C21            1.1589    -0.6940    -0.6742 C.3     
  22 C22            1.1694     2.1745    -0.0969 C.3     
  23 O23           -2.0954     1.9459    -1.3481 O.2     
  24 C24            1.5237    -2.0914    -0.1692 C.3     
  25 C25            0.8669    -1.9209    -1.5405 C.3     
  26 H26           -2.4328    -2.2058     2.1058 H       
  27 H27           -4.4629    -1.4317     3.2454 H       
  28 H28           -3.9826     2.4508     1.5117 H       
  29 H29           -6.4745     0.0595     1.5103 H       
  30 H30           -4.4449     2.4781     4.1164 H       
  31 H31           -5.3310     3.0281     2.6831 H       
  32 H32           -6.5968     2.1545     5.3032 H       
  33 H33           -6.3532     3.8366     4.7847 H       
  34 H34           -8.7463     3.1699     1.8940 H       
  35 H35           -7.2770     4.1128     2.2022 H       
  36 H36           -5.9588     2.5730     1.2396 H       
  37 H37           -7.4562     1.9073     0.5615 H       
  38 H38           -8.6683     0.0351     2.3819 H       
  39 H39           -7.5917    -0.4406     3.7036 H       
  40 H40           -8.3591     1.2102     4.9787 H       
  41 H41           -9.5345     1.5950     3.7061 H       
  42 H42            1.9754    -0.0417    -0.9837 H       
  43 H43            1.4528     2.3519    -1.1343 H       
  44 H44            0.9932     3.1286     0.3999 H       
  45 H45            1.9723     1.6422     0.4131 H       
  46 H46            2.5802    -2.3586    -0.1469 H       
  47 H47            0.9153    -2.5120     0.6314 H       
  48 H48           -0.1736    -2.2292    -1.6420 H       
  49 H49            1.4913    -2.0758    -2.4204 H       
@<TRIPOS>BOND
   1    1    2 1
   2    1   22 1
   3    1    6 am
   4    2    3 2
   5    2   21 1
   6    3    4 1
   7    4    5 ar
   8    4    8 ar
   9    5    6 1
  10    5   11 ar
  11    6    7 2
  12    6   23 2
  13    8    9 ar
  14    8   26 1
  15    9   10 ar
  16    9   27 1
  17   10   11 ar
  18   10   12 1
  19   11   28 1
  20   12   14 1
  21   12   13 1
  22   13   19 1
  23   13   18 1
  24   13   29 1
  25   14   15 1
  26   14   30 1
  27   14   31 1
  28   15   16 1
  29   15   32 1
  30   15   33 1
  31   16   17 1
  32   16   20 1
  33   17   18 1
  34   17   34 1
  35   17   35 1
  36   18   36 1
  37   18   37 1
  38   19   20 1
  39   19   38 1
  40   19   39 1
  41   20   40 1
  42   20   41 1
  43   21   24 1
  44   21   25 1
  45   21   42 1
  46   22   43 1
  47   22   44 1
  48   22   45 1
  49   24   25 1
  50   24   46 1
  51   24   47 1
  52   25   48 1
  53   25   49 1

#	End of record

