#	Name: ASD03910032
#	Creating user name:	WinNT
#	Creation time:	15. 06. 2019 20:47

#	Modifying user name:	WinNT
#	Modification time:	15. 06. 2019 20:47

#	Program:	/corina/corina34_cracker 3.40 0067  02.08.2006

@<TRIPOS>MOLECULE
ASD03910032
  55   56    0    0    0
SMALL
NO_CHARGES


@<TRIPOS>ATOM
   1 C1            -0.5615    -0.4456     0.4688 C.ar    
   2 C2             0.3583     0.1134     1.3369 C.ar    
   3 C3             0.0603     1.2885     2.0021 C.ar    
   4 C4            -1.1580     1.9074     1.8016 C.ar    
   5 C5            -2.0839     1.3486     0.9304 C.ar    
   6 C6            -1.7791     0.1717     0.2592 C.ar    
   7 N7            -3.3191     1.9731     0.7251 N.am    
   8 C8            -3.4024     3.3183     0.7255 C.2     
   9 O9            -2.4267     3.9863     0.9954 O.2     
  10 C10           -4.5339     5.4877     0.4618 C.ar    
  11 C11           -4.1471     6.1919    -0.6636 C.ar    
  12 C12           -3.9924     7.5633    -0.6024 C.ar    
  13 C13           -4.2254     8.2339     0.5895 C.ar    
  14 C14           -4.6134     7.5251     1.7172 C.ar    
  15 C15           -4.7667     6.1538     1.6508 C.ar    
  16 O16           -4.0735     9.5830     0.6523 O.3     
  17 C17           -4.2057    10.1915     1.9385 C.3     
  18 C18           -5.5828     9.9163     2.4853 C.2     
  19 C19           -0.2326    -1.7263    -0.2541 C.3     
  20 C20            1.0657     1.8942     2.9473 C.3     
  21 O21           -6.3732     9.2634     1.8373 O.2     
  22 N22           -5.9360    10.3958     3.6943 N.am    
  23 C23           -4.7079     3.9925     0.3906 C.3     
  24 C24           -3.1549     9.6116     2.8875 C.3     
  25 C25           -3.9998    11.7022     1.8115 C.3     
  26 C26           -7.2747    10.1283     4.2258 C.3     
  27 C27           -7.4141    10.7701     5.5822 C.2     
  28 O28           -6.4900    11.3875     6.0563 O.2     
  29 O29           -8.5649    10.6557     6.2637 O.3     
  30 H30            1.3114    -0.3690     1.4960 H       
  31 H31           -1.3904     2.8248     2.3220 H       
  32 H32           -2.4970    -0.2652    -0.4192 H       
  33 H33           -4.1154     1.4379     0.5824 H       
  34 H34           -3.9655     5.6692    -1.5911 H       
  35 H35           -3.6900     8.1128    -1.4816 H       
  36 H36           -4.7950     8.0449     2.6463 H       
  37 H37           -5.0687     5.6016     2.5284 H       
  38 H38           -0.5561    -2.5762     0.3469 H       
  39 H39           -0.7472    -1.7438    -1.2148 H       
  40 H40            0.8435    -1.7854    -0.4172 H       
  41 H41            1.7110     2.5812     2.3999 H       
  42 H42            0.5430     2.4364     3.7352 H       
  43 H43            1.6704     1.1029     3.3904 H       
  44 H44           -5.3038    10.9180     4.2125 H       
  45 H45           -5.0149     3.7100    -0.6164 H       
  46 H46           -5.4711     3.6812     1.1039 H       
  47 H47           -2.1624     9.9307     2.5693 H       
  48 H48           -3.3438     9.9678     3.9001 H       
  49 H49           -3.2099     8.5231     2.8691 H       
  50 H50           -4.6982    12.1036     1.0771 H       
  51 H51           -4.1765    12.1755     2.7774 H       
  52 H52           -2.9782    11.9039     1.4895 H       
  53 H53           -8.0233    10.5414     3.5497 H       
  54 H54           -7.4213     9.0520     4.3163 H       
  55 H55           -8.6068    11.0844     7.1295 H       
@<TRIPOS>BOND
   1    1    2 ar
   2    1   19 1
   3    1    6 ar
   4    2    3 ar
   5    2   30 1
   6    3    4 ar
   7    3   20 1
   8    4    5 ar
   9    4   31 1
  10    5    6 ar
  11    5    7 1
  12    6   32 1
  13    7    8 am
  14    7   33 1
  15    8    9 2
  16    8   23 1
  17   10   11 ar
  18   10   15 ar
  19   10   23 1
  20   11   12 ar
  21   11   34 1
  22   12   13 ar
  23   12   35 1
  24   13   14 ar
  25   13   16 1
  26   14   15 ar
  27   14   36 1
  28   15   37 1
  29   16   17 1
  30   17   18 1
  31   17   24 1
  32   17   25 1
  33   18   21 2
  34   18   22 am
  35   19   38 1
  36   19   39 1
  37   19   40 1
  38   20   41 1
  39   20   42 1
  40   20   43 1
  41   22   26 1
  42   22   44 1
  43   23   45 1
  44   23   46 1
  45   24   47 1
  46   24   48 1
  47   24   49 1
  48   25   50 1
  49   25   51 1
  50   25   52 1
  51   26   27 1
  52   26   53 1
  53   26   54 1
  54   27   28 2
  55   27   29 1
  56   29   55 1

#	End of record

