#	Name: ASD02500284
#	Creating user name:	WinNT
#	Creation time:	15. 06. 2019 20:22

#	Modifying user name:	WinNT
#	Modification time:	15. 06. 2019 20:22

#	Program:	/corina/corina34_cracker 3.40 0067  02.08.2006

@<TRIPOS>MOLECULE
ASD02500284
  74   78    0    0    0
SMALL
NO_CHARGES


@<TRIPOS>ATOM
   1 N1             0.2957     0.3960    -3.6948 N.am    
   2 C2             1.5216     1.2060    -3.7259 C.3     
   3 C3             2.0968     1.2792    -2.3060 C.3     
   4 N4             2.1609    -0.0816    -1.7546 N.am    
   5 C5             0.9350    -0.8916    -1.7235 C.3     
   6 C6             0.3597    -0.9648    -3.1433 C.3     
   7 C7            -0.8676     0.8942    -4.1585 C.2     
   8 O8            -0.9093     2.0225    -4.6074 O.2     
   9 O9            -1.9835     0.1416    -4.1242 O.3     
  10 C10            3.3231    -0.5779    -1.2862 C.2     
  11 C11            4.5644     0.2097    -1.4091 C.ar    
  12 C12            4.5509     1.5836    -1.1478 C.ar    
  13 C13            5.7142     2.3166    -1.2634 C.ar    
  14 C14            6.9017     1.6860    -1.6408 C.ar    
  15 C15            6.9141     0.3206    -1.9007 C.ar    
  16 C16            5.7566    -0.4166    -1.7811 C.ar    
  17 O17            3.3485    -1.6750    -0.7624 O.2     
  18 S18            9.2067     2.0125    -2.8938 S.o2    
  19 O19            8.4938     1.7664    -4.0981 O.2     
  20 O20           10.2496     2.9721    -2.7903 O.2     
  21 N21            8.0757     2.4267    -1.7573 N.am    
  22 N22           10.7847     1.4335    -0.4042 N.ar    
  23 C23           11.4514     1.3462     0.7211 C.ar    
  24 C24           12.0163     0.1460     1.1475 C.ar    
  25 C25           11.8815    -0.9795     0.3856 C.ar    
  26 C26           11.1645    -0.8821    -0.8220 C.ar    
  27 C27           10.9850    -1.9958    -1.6575 C.ar    
  28 C28           10.2854    -1.8607    -2.8180 C.ar    
  29 C29            9.7441    -0.6312    -3.1873 C.ar    
  30 C30            9.8998     0.4692    -2.4016 C.ar    
  31 C31           10.6161     0.3698    -1.1963 C.ar    
  32 O32            5.7042     3.6530    -1.0104 O.3     
  33 C33            4.4544     4.2318    -0.6297 C.3     
  34 C34           -3.2002     0.7429    -4.6404 C.3     
  35 C35           -4.3534    -0.2552    -4.5192 C.3     
  36 C36           -5.6355     0.3783    -5.0631 C.3     
  37 C37           -6.7753    -0.6554    -5.0633 C.3     
  38 C38           -7.8792    -0.0943    -4.1434 C.3     
  39 C39           -7.6324     1.4348    -4.1429 C.3     
  40 C40           -6.0866     1.5315    -4.1431 C.3     
  41 H41            2.2494     0.7427    -4.3920 H       
  42 H42            1.2874     2.2107    -4.0779 H       
  43 H43            3.0983     1.7081    -2.3387 H       
  44 H44            1.4517     1.8971    -1.6813 H       
  45 H45            1.1692    -1.8963    -1.3714 H       
  46 H46            0.2072    -0.4283    -1.0573 H       
  47 H47           -0.6418    -1.3937    -3.1106 H       
  48 H48            1.0048    -1.5826    -3.7680 H       
  49 H49            3.6316     2.0699    -0.8564 H       
  50 H50            7.8339    -0.1641    -2.1930 H       
  51 H51            5.7697    -1.4782    -1.9793 H       
  52 H52            8.2307     3.1851    -1.1727 H       
  53 H53           11.5661     2.2281     1.3339 H       
  54 H54           12.5607     0.1058     2.0794 H       
  55 H55           12.3132    -1.9180     0.7007 H       
  56 H56           11.3996    -2.9542    -1.3818 H       
  57 H57           10.1477    -2.7180    -3.4602 H       
  58 H58            9.1939    -0.5495    -4.1130 H       
  59 H59            4.0981     3.7579     0.2849 H       
  60 H60            4.5861     5.3001    -0.4579 H       
  61 H61            3.7257     4.0790    -1.4258 H       
  62 H62           -3.4340     1.6397    -4.0667 H       
  63 H63           -3.0581     1.0085    -5.6880 H       
  64 H64           -4.1196    -1.1520    -5.0929 H       
  65 H65           -4.4955    -0.5208    -3.4717 H       
  66 H66           -5.4682     0.7498    -6.0741 H       
  67 H67           -7.1617    -0.7850    -6.0742 H       
  68 H68           -6.4151    -1.6084    -4.6759 H       
  69 H69           -8.8653    -0.3215    -4.5485 H       
  70 H70           -7.7776    -0.4974    -3.1358 H       
  71 H71           -8.0483     1.8935    -5.0400 H       
  72 H72           -8.0480     1.8929    -3.2454 H       
  73 H73           -5.6954     1.3910    -3.1355 H       
  74 H74           -5.7644     2.4909    -4.5481 H       
@<TRIPOS>BOND
   1    1    2 1
   2    1    6 1
   3    1    7 am
   4    2    3 1
   5    2   41 1
   6    2   42 1
   7    3    4 1
   8    3   43 1
   9    3   44 1
  10    4    5 1
  11    4   10 am
  12    5    6 1
  13    5   45 1
  14    5   46 1
  15    6   47 1
  16    6   48 1
  17    7    8 2
  18    7    9 1
  19    9   34 1
  20   10   11 1
  21   10   17 2
  22   11   12 ar
  23   11   16 ar
  24   12   13 ar
  25   12   49 1
  26   13   14 ar
  27   13   32 1
  28   14   15 ar
  29   14   21 1
  30   15   16 ar
  31   15   50 1
  32   16   51 1
  33   18   19 2
  34   18   20 2
  35   18   21 am
  36   18   30 1
  37   21   52 1
  38   22   23 ar
  39   22   31 ar
  40   23   24 ar
  41   23   53 1
  42   24   25 ar
  43   24   54 1
  44   25   26 ar
  45   25   55 1
  46   26   27 ar
  47   26   31 ar
  48   27   28 ar
  49   27   56 1
  50   28   29 ar
  51   28   57 1
  52   29   30 ar
  53   29   58 1
  54   30   31 ar
  55   32   33 1
  56   33   59 1
  57   33   60 1
  58   33   61 1
  59   34   35 1
  60   34   62 1
  61   34   63 1
  62   35   36 1
  63   35   64 1
  64   35   65 1
  65   36   37 1
  66   36   40 1
  67   36   66 1
  68   37   38 1
  69   37   67 1
  70   37   68 1
  71   38   39 1
  72   38   69 1
  73   38   70 1
  74   39   40 1
  75   39   71 1
  76   39   72 1
  77   40   73 1
  78   40   74 1

#	End of record

