#	Name: ASD01881156
#	Creating user name:	WinNT
#	Creation time:	15. 06. 2019 19:42

#	Modifying user name:	WinNT
#	Modification time:	15. 06. 2019 19:42

#	Program:	/corina/corina34_cracker 3.40 0067  02.08.2006

@<TRIPOS>MOLECULE
ASD01881156
  53   55    0    0    0
SMALL
NO_CHARGES


@<TRIPOS>ATOM
   1 Cl1            8.0420     4.6140     0.7367 Cl      
   2 N2            -0.0158     1.3137     0.0093 N.ar    
   3 C3             0.0021    -0.0041     0.0020 C.ar    
   4 N4             1.1320    -0.6824    -0.0120 N.ar    
   5 C5             2.2982    -0.0569    -0.0197 C.ar    
   6 C6             2.3199     1.3289    -0.0130 C.ar    
   7 C7             1.1113     2.0071     0.0022 C.ar    
   8 C8             3.6263     2.0802    -0.0209 C.3     
   9 O9             4.0271     2.3244    -1.3706 O.3     
  10 C10            5.1918     2.9960    -1.5555 C.ar    
  11 C11            5.6406     3.2672    -2.8449 C.ar    
  12 C12            6.8182     3.9468    -3.0316 C.ar    
  13 C13            7.5734     4.3704    -1.9326 C.ar    
  14 C14            7.1179     4.0961    -0.6386 C.ar    
  15 C15            5.9316     3.4169    -0.4577 C.ar    
  16 C16            7.5701     4.3918    -4.2613 C.3     
  17 N17            8.7733     5.0794    -3.7790 N.am    
  18 C18            8.7707     5.0645    -2.4350 C.2     
  19 O19            9.6348     5.5543    -1.7336 O.2     
  20 C20           -1.7602    -1.0018    -1.4291 C.3     
  21 C21           -1.3043    -0.7553     0.0105 C.3     
  22 C22            9.4472     7.1436    -4.9043 C.3     
  23 C23            9.8070     5.6833    -4.6234 C.3     
  24 C24            1.0569     4.0310    -1.4296 C.3     
  25 C25            1.0811     3.5138     0.0101 C.3     
  26 C26            4.0074    -1.0993    -1.4829 C.3     
  27 C27            3.5851    -0.8408    -0.0352 C.3     
  28 H28            3.5023     3.0302     0.4989 H       
  29 H29            4.3895     1.4872     0.4831 H       
  30 H30            5.0627     2.9428    -3.6976 H       
  31 H31            5.5799     3.2051     0.5412 H       
  32 H32            7.8487     3.5271    -4.8636 H       
  33 H33            6.9572     5.0761    -4.8481 H       
  34 H34           -1.0065    -1.5894    -1.9533 H       
  35 H35           -2.7050    -1.5452    -1.4230 H       
  36 H36           -1.8937    -0.0465    -1.9366 H       
  37 H37           -1.1707    -1.7107     0.5179 H       
  38 H38           -2.0580    -0.1677     0.5347 H       
  39 H39           10.2163     7.5929    -5.5325 H       
  40 H40            8.4867     7.1890    -5.4174 H       
  41 H41            9.3824     7.6894    -3.9630 H       
  42 H42           10.7676     5.6380    -4.1102 H       
  43 H43            9.8718     5.1376    -5.5647 H       
  44 H44            1.9489     3.6882    -1.9539 H       
  45 H45            0.1694     3.6524    -1.9367 H       
  46 H46            1.0351     5.1207    -1.4239 H       
  47 H47            0.1891     3.8566     0.5344 H       
  48 H48            1.9686     3.8923     0.5173 H       
  49 H49            3.2294    -1.6680    -1.9923 H       
  50 H50            4.1554    -0.1478    -1.9937 H       
  51 H51            4.9383    -1.6663    -1.4941 H       
  52 H52            4.3631    -0.2722     0.4741 H       
  53 H53            3.4371    -1.7923     0.4755 H       
@<TRIPOS>BOND
   1    1   14 1
   2    2    3 ar
   3    2    7 ar
   4    3    4 ar
   5    3   21 1
   6    4    5 ar
   7    5    6 ar
   8    5   27 1
   9    6    7 ar
  10    6    8 1
  11    7   25 1
  12    8    9 1
  13    8   28 1
  14    8   29 1
  15    9   10 1
  16   10   11 ar
  17   10   15 ar
  18   11   12 ar
  19   11   30 1
  20   12   13 ar
  21   12   16 1
  22   13   14 ar
  23   13   18 1
  24   14   15 ar
  25   15   31 1
  26   16   17 1
  27   16   32 1
  28   16   33 1
  29   17   18 am
  30   17   23 1
  31   18   19 2
  32   20   21 1
  33   20   34 1
  34   20   35 1
  35   20   36 1
  36   21   37 1
  37   21   38 1
  38   22   23 1
  39   22   39 1
  40   22   40 1
  41   22   41 1
  42   23   42 1
  43   23   43 1
  44   24   25 1
  45   24   44 1
  46   24   45 1
  47   24   46 1
  48   25   47 1
  49   25   48 1
  50   26   27 1
  51   26   49 1
  52   26   50 1
  53   26   51 1
  54   27   52 1
  55   27   53 1

#	End of record

