#	Name: ASD03320178
#	Creating user name:	WinNT
#	Creation time:	15. 06. 2019 20:36

#	Modifying user name:	WinNT
#	Modification time:	15. 06. 2019 20:36

#	Program:	/corina/corina34_cracker 3.40 0067  02.08.2006

@<TRIPOS>MOLECULE
ASD03320178
  41   43    0    0    0
SMALL
NO_CHARGES


@<TRIPOS>ATOM
   1 C1            -0.0078     1.3448    -0.1947 C.ar    
   2 C2             0.0216    -0.0349     0.0279 C.ar    
   3 C3            -1.1509    -0.7583     0.0450 C.ar    
   4 C4            -2.3673    -0.1220    -0.1589 C.ar    
   5 C5            -2.4072     1.2598    -0.3832 C.ar    
   6 C6            -1.2280     1.9922    -0.3948 C.ar    
   7 C7             1.2498     2.1172    -0.2120 C.2     
   8 O8             1.2236     3.3174    -0.4056 O.2     
   9 N9             2.4273     1.4923    -0.0131 N.am    
  10 C10            3.6268     2.2061    -0.1264 C.ar    
  11 C11           -3.7076     1.9405    -0.6022 C.2     
  12 C12            3.6886     3.5305     0.2864 C.ar    
  13 C13            4.8718     4.2336     0.1748 C.ar    
  14 C14            5.9984     3.6173    -0.3500 C.ar    
  15 C15            5.9373     2.2944    -0.7631 C.ar    
  16 C16            4.7564     1.5882    -0.6464 C.ar    
  17 O17            7.1631     4.3104    -0.4600 O.3     
  18 C18            8.2833     3.6136    -1.0092 C.3     
  19 F19            7.9766     3.1857    -2.3054 F       
  20 F20            9.3900     4.4684    -1.0499 F       
  21 F21            8.5800     2.5043    -0.2100 F       
  22 O22           -3.5188    -0.8393    -0.1415 O.3     
  23 N23           -4.8913     1.3649    -0.6101 N.2     
  24 N24           -5.8544     2.3532    -0.8499 N.pl3   
  25 C25           -5.2180     3.5364    -0.9857 C.2     
  26 C26           -3.8937     3.3175    -0.8323 C.2     
  27 C27           -3.4044    -2.2444     0.0923 C.3     
  28 H28            0.9656    -0.5350     0.1864 H       
  29 H29           -1.1233    -1.8241     0.2173 H       
  30 H30           -1.2539     3.0581    -0.5669 H       
  31 H31            2.4439     0.5481     0.2085 H       
  32 H32            2.8115     4.0106     0.6944 H       
  33 H33            4.9201     5.2636     0.4958 H       
  34 H34            6.8146     1.8155    -1.1722 H       
  35 H35            4.7091     0.5582    -0.9677 H       
  36 H36           -6.8123     2.2121    -0.9086 H       
  37 H37           -5.6857     4.4906    -1.1784 H       
  38 H38           -3.1154     4.0645    -0.8846 H       
  39 H39           -2.7911    -2.6939    -0.6887 H       
  40 H40           -2.9386    -2.4145     1.0630 H       
  41 H41           -4.3961    -2.6966     0.0809 H       
@<TRIPOS>BOND
   1    1    2 ar
   2    1    7 1
   3    1    6 ar
   4    2    3 ar
   5    2   28 1
   6    3    4 ar
   7    3   29 1
   8    4    5 ar
   9    4   22 1
  10    5    6 ar
  11    5   11 1
  12    6   30 1
  13    7    8 2
  14    7    9 am
  15    9   10 1
  16    9   31 1
  17   10   12 ar
  18   10   16 ar
  19   11   23 2
  20   11   26 1
  21   12   13 ar
  22   12   32 1
  23   13   14 ar
  24   13   33 1
  25   14   15 ar
  26   14   17 1
  27   15   16 ar
  28   15   34 1
  29   16   35 1
  30   17   18 1
  31   18   19 1
  32   18   20 1
  33   18   21 1
  34   22   27 1
  35   23   24 1
  36   24   25 1
  37   24   36 1
  38   25   26 2
  39   25   37 1
  40   26   38 1
  41   27   39 1
  42   27   40 1
  43   27   41 1

#	End of record

