#	Name: ASD01811949
#	Creating user name:	WinNT
#	Creation time:	15. 06. 2019 19:27

#	Modifying user name:	WinNT
#	Modification time:	15. 06. 2019 19:27

#	Program:	/corina/corina34_cracker 3.40 0067  02.08.2006

@<TRIPOS>MOLECULE
ASD01811949
  40   43    0    0    0
SMALL
NO_CHARGES


@<TRIPOS>ATOM
   1 C1            -0.0161     1.3395     0.0094 C.ar    
   2 C2             1.1179    -0.6730    -0.0122 C.2     
   3 N3             0.0021    -0.0041     0.0020 N.2     
   4 C4             2.4449     1.2699    -0.0150 C.2     
   5 N5             2.3377    -0.0791    -0.0202 N.am    
   6 C6             3.5479    -0.9045    -0.0353 C.3     
   7 C7             3.5517    -1.7814    -1.2890 C.3     
   8 C8             4.8156    -2.6434    -1.3047 C.3     
   9 C9             4.8418    -3.5329    -0.0601 C.3     
  10 C10            4.8381    -2.6559     1.1937 C.3     
  11 C11            3.5742    -1.7939     1.2093 C.3     
  12 O12            3.5325     1.8179    -0.0228 O.2     
  13 O13            3.5272    -0.9507    -2.4515 O.3     
  14 C14            1.1993     2.0477     0.0016 C.ar    
  15 C15           -1.2647     2.0959     0.0315 C.ar    
  16 C16           -2.5087     1.4568     0.0460 C.ar    
  17 C17           -3.6511     2.2026     0.0669 C.ar    
  18 C18           -3.5943     3.5925     0.0740 C.ar    
  19 C19           -2.3980     4.2459     0.0602 C.ar    
  20 C20           -1.2031     3.5107     0.0386 C.ar    
  21 C21            0.0502     4.1595     0.0239 C.ar    
  22 C22            1.2056     3.4512     0.0100 C.ar    
  23 Br23           0.1186     6.0492     0.0330 Br      
  24 H24            1.0709    -1.7519    -0.0176 H       
  25 H25            4.4271    -0.2601    -0.0400 H       
  26 H26            2.6725    -2.4258    -1.2843 H       
  27 H27            4.8183    -3.2682    -2.1979 H       
  28 H28            5.6948    -1.9991    -1.3094 H       
  29 H29            3.9627    -4.1772    -0.0554 H       
  30 H30            5.7423    -4.1470    -0.0713 H       
  31 H31            4.8568    -3.2896     2.0803 H       
  32 H32            5.7173    -2.0116     1.1890 H       
  33 H33            3.5715    -1.1692     2.1025 H       
  34 H34            2.6950    -2.4383     1.2140 H       
  35 H35            3.5281    -1.4407    -3.2851 H       
  36 H36           -2.5647     0.3783     0.0403 H       
  37 H37           -4.6110     1.7078     0.0778 H       
  38 H38           -4.5115     4.1624     0.0903 H       
  39 H39           -2.3700     5.3255     0.0663 H       
  40 H40            2.1490     3.9767    -0.0007 H       
@<TRIPOS>BOND
   1    1    3 1
   2    1   14 ar
   3    1   15 ar
   4    2    3 2
   5    2    5 1
   6    2   24 1
   7    4    5 am
   8    4   12 2
   9    4   14 1
  10    5    6 1
  11    6    7 1
  12    6   11 1
  13    6   25 1
  14    7    8 1
  15    7   13 1
  16    7   26 1
  17    8    9 1
  18    8   27 1
  19    8   28 1
  20    9   10 1
  21    9   29 1
  22    9   30 1
  23   10   11 1
  24   10   31 1
  25   10   32 1
  26   11   33 1
  27   11   34 1
  28   13   35 1
  29   14   22 ar
  30   15   16 ar
  31   15   20 ar
  32   16   17 ar
  33   16   36 1
  34   17   18 ar
  35   17   37 1
  36   18   19 ar
  37   18   38 1
  38   19   20 ar
  39   19   39 1
  40   20   21 ar
  41   21   22 ar
  42   21   23 1
  43   22   40 1

#	End of record

