#	Name: ASD01410594
#	Creating user name:	WinNT
#	Creation time:	15. 06. 2019 19:18

#	Modifying user name:	WinNT
#	Modification time:	15. 06. 2019 19:18

#	Program:	/corina/corina34_cracker 3.40 0067  02.08.2006

@<TRIPOS>MOLECULE
ASD01410594
  72   74    0    0    0
SMALL
NO_CHARGES


@<TRIPOS>ATOM
   1 C1            -2.4918     3.2527     1.9946 C.ar    
   2 O2            -2.5401     2.7020     0.7556 O.3     
   3 C3            -3.1698     1.5054     0.6130 C.ar    
   4 C4            -4.5510     1.4294     0.7466 C.ar    
   5 C5            -5.2003     0.2199     0.6034 C.ar    
   6 C6            -4.4762    -0.9310     0.3247 C.ar    
   7 C7            -3.0814    -0.8610     0.1886 C.ar    
   8 C8            -2.4343     0.3690     0.3298 C.ar    
   9 N9            -5.1325    -2.1525     0.1810 N.am    
  10 C10           -5.5589    -2.5495    -1.0343 C.2     
  11 C11           -5.3587    -3.0046     1.3511 C.3     
  12 O12           -6.2047    -3.5699    -1.1469 O.2     
  13 C13           -5.2333    -1.7255    -2.2533 C.3     
  14 C14           -6.3924    -1.8074    -3.2487 C.3     
  15 C15           -6.0618    -0.9708    -4.4864 C.3     
  16 C16           -4.7883    -1.5098    -5.1410 C.3     
  17 C17           -3.6292    -1.4280    -4.1456 C.3     
  18 C18           -3.9598    -2.2645    -2.9080 C.3     
  19 C19           -4.4577    -0.6733    -6.3787 C.3     
  20 C20           -4.5971    -2.4368     2.5504 C.3     
  21 O21           -7.5503    -3.6999     0.6068 O.3     
  22 C22           -6.8545    -3.0462     1.6701 C.3     
  23 C23           -8.9623    -3.7923     0.8065 C.3     
  24 O24           -3.1921    -2.5072     2.2992 O.3     
  25 C25           -2.3851    -1.9993     3.3635 C.3     
  26 C26           -1.7781     4.4241     2.1975 C.ar    
  27 C27           -1.7372     4.9774     3.4723 C.ar    
  28 C28           -2.4197     4.3268     4.4990 C.ar    
  29 C29           -3.1077     3.1651     4.2194 C.ar    
  30 N30           -3.1311     2.6689     2.9963 N.ar    
  31 C31           -1.0615     6.6194     5.0513 C.3     
  32 O32           -1.0491     6.1228     3.7114 O.3     
  33 C33           -1.0569     5.0877     1.0527 C.3     
  34 F34           -1.7345     4.8221    -0.1421 F       
  35 F35           -1.0137     6.4695     1.2671 F       
  36 F36            0.2470     4.5875     0.9704 F       
  37 C37           -2.3038    -2.0777    -0.1073 C.2     
  38 O38           -2.8765    -3.1288    -0.3165 O.2     
  39 O39           -0.9579    -2.0244    -0.1457 O.3     
  40 H40           -5.1194     2.3216     0.9641 H       
  41 H41           -6.2739     0.1688     0.7086 H       
  42 H42           -1.3610     0.4309     0.2260 H       
  43 H43           -5.0040    -4.0134     1.1399 H       
  44 H44           -5.0793    -0.6872    -1.9595 H       
  45 H45           -6.5463    -2.8457    -3.5425 H       
  46 H46           -7.2996    -1.4234    -2.7824 H       
  47 H47           -6.8875    -1.0291    -5.1955 H       
  48 H48           -5.9078     0.0675    -4.1926 H       
  49 H49           -4.9422    -2.5481    -5.4348 H       
  50 H50           -2.7220    -1.8120    -4.6120 H       
  51 H51           -3.4752    -0.3897    -3.8518 H       
  52 H52           -3.1341    -2.2062    -2.1988 H       
  53 H53           -4.1138    -3.3028    -3.2018 H       
  54 H54           -4.3037     0.3650    -6.0849 H       
  55 H55           -3.5504    -1.0573    -6.8450 H       
  56 H56           -5.2834    -0.7316    -7.0878 H       
  57 H57           -4.8867    -1.3975     2.7058 H       
  58 H58           -4.8365    -3.0178     3.4410 H       
  59 H59           -7.0128    -3.5944     2.5989 H       
  60 H60           -7.2311    -2.0293     1.7797 H       
  61 H61           -9.1643    -4.3559     1.7173 H       
  62 H62           -9.3826    -2.7908     0.8982 H       
  63 H63           -9.4170    -4.3007    -0.0437 H       
  64 H64           -2.6289    -0.9509     3.5358 H       
  65 H65           -2.5787    -2.5712     4.2710 H       
  66 H66           -1.3323    -2.0882     3.0955 H       
  67 H67           -2.4094     4.7278     5.5018 H       
  68 H68           -3.6380     2.6565     5.0108 H       
  69 H69           -0.4754     7.5369     5.1042 H       
  70 H70           -2.0884     6.8263     5.3526 H       
  71 H71           -0.6301     5.8737     5.7192 H       
  72 H72           -0.4914    -2.8479    -0.3437 H       
@<TRIPOS>BOND
   1    1    2 1
   2    1   26 ar
   3    1   30 ar
   4    2    3 1
   5    3    4 ar
   6    3    8 ar
   7    4    5 ar
   8    4   40 1
   9    5    6 ar
  10    5   41 1
  11    6    7 ar
  12    6    9 1
  13    7    8 ar
  14    7   37 1
  15    8   42 1
  16    9   10 am
  17    9   11 1
  18   10   12 2
  19   10   13 1
  20   11   20 1
  21   11   22 1
  22   11   43 1
  23   13   14 1
  24   13   18 1
  25   13   44 1
  26   14   15 1
  27   14   45 1
  28   14   46 1
  29   15   16 1
  30   15   47 1
  31   15   48 1
  32   16   17 1
  33   16   19 1
  34   16   49 1
  35   17   18 1
  36   17   50 1
  37   17   51 1
  38   18   52 1
  39   18   53 1
  40   19   54 1
  41   19   55 1
  42   19   56 1
  43   20   24 1
  44   20   57 1
  45   20   58 1
  46   21   22 1
  47   21   23 1
  48   22   59 1
  49   22   60 1
  50   23   61 1
  51   23   62 1
  52   23   63 1
  53   24   25 1
  54   25   64 1
  55   25   65 1
  56   25   66 1
  57   26   27 ar
  58   26   33 1
  59   27   28 ar
  60   27   32 1
  61   28   29 ar
  62   28   67 1
  63   29   30 ar
  64   29   68 1
  65   31   32 1
  66   31   69 1
  67   31   70 1
  68   31   71 1
  69   33   34 1
  70   33   35 1
  71   33   36 1
  72   37   38 2
  73   37   39 1
  74   39   72 1

#	End of record

