#	Name: ASD01190185
#	Creating user name:	WinNT
#	Creation time:	15. 06. 2019 19:07

#	Modifying user name:	WinNT
#	Modification time:	15. 06. 2019 19:07

#	Program:	/corina/corina34_cracker 3.40 0067  02.08.2006

@<TRIPOS>MOLECULE
ASD01190185
  60   65    0    0    0
SMALL
NO_CHARGES


@<TRIPOS>ATOM
   1 C1            -0.0187     1.5258     0.0104 C.3     
   2 C2             0.5214     0.1130    -0.2206 C.3     
   3 N3             3.1195     3.1619     1.0262 N.pl3   
   4 C4             2.3874     2.0742     0.6347 C.2     
   5 C5             1.1069     2.4291     0.4441 C.2     
   6 C6             1.0112     3.8611     0.7376 C.ar    
   7 C7            -0.0335     4.7875     0.7215 C.ar    
   8 C8             0.2092     6.0893     1.0574 C.ar    
   9 C9             1.4866     6.4991     1.4148 C.ar    
  10 C10            2.5317     5.6021     1.4369 C.ar    
  11 C11            2.3073     4.2713     1.0989 C.ar    
  12 C12            4.5528     3.1469     1.3290 C.3     
  13 O13            4.3029     1.6588     3.2495 O.3     
  14 C14            4.7541     2.9666     2.8349 C.3     
  15 C15            6.2588     2.9939     3.1834 C.3     
  16 C16            6.4026     1.9448     4.3086 C.3     
  17 C17            4.9678     1.4079     4.5068 C.3     
  18 N18           -2.4977     3.4608    -4.6500 N.pl3   
  19 N19           -3.8275     3.4254    -4.2176 N.2     
  20 C20           -3.8886     2.9833    -2.9934 C.2     
  21 C21           -2.5268     2.6966    -2.5535 C.ar    
  22 C22           -1.9707     2.2105    -1.3650 C.ar    
  23 C23           -0.6188     2.0496    -1.2688 C.ar    
  24 C24            0.2095     2.3646    -2.3391 C.ar    
  25 C25           -0.3100     2.8411    -3.5094 C.ar    
  26 C26           -1.6854     3.0152    -3.6370 C.ar    
  27 C27           -2.0650     3.8781    -5.9154 C.ar    
  28 C28           -2.8419     3.6179    -7.0366 C.ar    
  29 C29           -2.4135     4.0300    -8.2831 C.ar    
  30 C30           -1.2100     4.7024    -8.4154 C.ar    
  31 C31           -0.4338     4.9629    -7.2985 C.ar    
  32 C32           -0.8613     4.5574    -6.0495 C.ar    
  33 F33           -0.7925     5.1044    -9.6357 F       
  34 F34            1.0785    -0.3733     0.9670 F       
  35 F35           -0.5235    -0.7256    -0.6232 F       
  36 F36            1.5030     0.1461    -1.2169 F       
  37 O37           -1.0213     1.4919     1.0281 O.3     
  38 H38            2.7815     1.0779     0.4987 H       
  39 H39           -1.0297     4.4760     0.4442 H       
  40 H40           -0.5991     6.8055     1.0445 H       
  41 H41            1.6628     7.5317     1.6778 H       
  42 H42            3.5220     5.9307     1.7159 H       
  43 H43            5.0278     2.3221     0.7977 H       
  44 H44            5.0009     4.0888     1.0127 H       
  45 H45            4.2217     3.7434     3.3838 H       
  46 H46            6.8566     2.7095     2.3175 H       
  47 H47            6.5500     3.9811     3.5422 H       
  48 H48            7.0715     1.1418     3.9990 H       
  49 H49            6.7649     2.4134     5.2237 H       
  50 H50            4.4695     1.9455     5.3135 H       
  51 H51            4.9885     0.3388     4.7183 H       
  52 H52           -4.7869     2.8526    -2.4084 H       
  53 H53           -2.6077     1.9642    -0.5283 H       
  54 H54            1.2771     2.2315    -2.2446 H       
  55 H55            0.3448     3.0825    -4.3336 H       
  56 H56           -3.7803     3.0932    -6.9339 H       
  57 H57           -3.0172     3.8276    -9.1554 H       
  58 H58            0.5046     5.4870    -7.4038 H       
  59 H59           -0.2580     4.7650    -5.1781 H       
  60 H60           -1.4089     2.3552     1.2273 H       
@<TRIPOS>BOND
   1    1    2 1
   2    1    5 1
   3    1   23 1
   4    1   37 1
   5    2   34 1
   6    2   35 1
   7    2   36 1
   8    3    4 1
   9    3   11 1
  10    3   12 1
  11    4    5 2
  12    4   38 1
  13    5    6 1
  14    6    7 ar
  15    6   11 ar
  16    7    8 ar
  17    7   39 1
  18    8    9 ar
  19    8   40 1
  20    9   10 ar
  21    9   41 1
  22   10   11 ar
  23   10   42 1
  24   12   14 1
  25   12   43 1
  26   12   44 1
  27   13   14 1
  28   13   17 1
  29   14   15 1
  30   14   45 1
  31   15   16 1
  32   15   46 1
  33   15   47 1
  34   16   17 1
  35   16   48 1
  36   16   49 1
  37   17   50 1
  38   17   51 1
  39   18   19 1
  40   18   26 1
  41   18   27 1
  42   19   20 2
  43   20   21 1
  44   20   52 1
  45   21   22 ar
  46   21   26 ar
  47   22   23 ar
  48   22   53 1
  49   23   24 ar
  50   24   25 ar
  51   24   54 1
  52   25   26 ar
  53   25   55 1
  54   27   28 ar
  55   27   32 ar
  56   28   29 ar
  57   28   56 1
  58   29   30 ar
  59   29   57 1
  60   30   31 ar
  61   30   33 1
  62   31   32 ar
  63   31   58 1
  64   32   59 1
  65   37   60 1

#	End of record

