#	Name: ASD01880234
#	Creating user name:	WinNT
#	Creation time:	15. 06. 2019 19:40

#	Modifying user name:	WinNT
#	Modification time:	15. 06. 2019 19:40

#	Program:	/corina/corina34_cracker 3.40 0067  02.08.2006

@<TRIPOS>MOLECULE
ASD01880234
  43   45    0    0    0
SMALL
NO_CHARGES


@<TRIPOS>ATOM
   1 C1            -0.0304     1.5013    -0.0088 C.3     
   2 C2            -0.0076    -0.0055    -0.0130 C.ar    
   3 C3             0.1572    -0.6954     1.1745 C.ar    
   4 C4             0.1789    -2.0754     1.1765 C.ar    
   5 C5             0.0343    -2.7736    -0.0207 C.ar    
   6 C6            -0.1314    -2.0735    -1.2139 C.ar    
   7 C7            -0.1572    -0.6936    -1.2036 C.ar    
   8 C8             0.0573    -4.2573    -0.0248 C.ar    
   9 N9             1.3317     2.0108    -0.1853 N.am    
  10 C10            1.9730     2.3093    -1.4750 C.3     
  11 C11            3.3769     2.8070    -1.0802 C.3     
  12 O12            3.3794     2.7376     0.3751 O.3     
  13 C13            2.1947     2.2865     0.8022 C.2     
  14 C14            3.5863     4.2484    -1.5488 C.3     
  15 O15            1.9282     2.1328     1.9777 O.2     
  16 C16           -0.8496    -4.9728     0.7540 C.ar    
  17 C17           -0.8238    -6.3529     0.7464 C.ar    
  18 C18            0.1005    -7.0254    -0.0322 C.ar    
  19 C19            1.0036    -6.3200    -0.8071 C.ar    
  20 C20            0.9824    -4.9402    -0.8122 C.ar    
  21 C21           -1.8567    -4.2413     1.6036 C.3     
  22 C22           -3.0245    -3.7818     0.7284 C.3     
  23 H23           -0.6600     1.8574    -0.8243 H       
  24 H24           -0.4308     1.8560     0.9409 H       
  25 H25            0.2696    -0.1532     2.1017 H       
  26 H26            0.3080    -2.6131     2.1042 H       
  27 H27           -0.2440    -2.6097    -2.1446 H       
  28 H28           -0.2857    -0.1499    -2.1279 H       
  29 H29            2.0436     1.4087    -2.0850 H       
  30 H30            1.4250     3.0891    -2.0037 H       
  31 H31            4.1445     2.1539    -1.4953 H       
  32 H32            2.8392     4.8931    -1.0859 H       
  33 H33            4.5831     4.5827    -1.2611 H       
  34 H34            3.4859     4.2962    -2.6331 H       
  35 H35           -1.5264    -6.9085     1.3498 H       
  36 H36            0.1174    -8.1053    -0.0349 H       
  37 H37            1.7238    -6.8502    -1.4127 H       
  38 H38            1.6879    -4.3905    -1.4176 H       
  39 H39           -2.2268    -4.9075     2.3829 H       
  40 H40           -1.3830    -3.3734     2.0624 H       
  41 H41           -3.4418    -4.6390     0.2001 H       
  42 H42           -3.7939    -3.3320     1.3560 H       
  43 H43           -2.6697    -3.0470     0.0057 H       
@<TRIPOS>BOND
   1    1    2 1
   2    1    9 1
   3    1   23 1
   4    1   24 1
   5    2    3 ar
   6    2    7 ar
   7    3    4 ar
   8    3   25 1
   9    4    5 ar
  10    4   26 1
  11    5    6 ar
  12    5    8 1
  13    6    7 ar
  14    6   27 1
  15    7   28 1
  16    8   16 ar
  17    8   20 ar
  18    9   10 1
  19    9   13 am
  20   10   11 1
  21   10   29 1
  22   10   30 1
  23   11   12 1
  24   11   14 1
  25   11   31 1
  26   12   13 1
  27   13   15 2
  28   14   32 1
  29   14   33 1
  30   14   34 1
  31   16   17 ar
  32   16   21 1
  33   17   18 ar
  34   17   35 1
  35   18   19 ar
  36   18   36 1
  37   19   20 ar
  38   19   37 1
  39   20   38 1
  40   21   22 1
  41   21   39 1
  42   21   40 1
  43   22   41 1
  44   22   42 1
  45   22   43 1

#	End of record

