#	Name: ASD02030605
#	Creating user name:	WinNT
#	Creation time:	15. 06. 2019 20:15

#	Modifying user name:	WinNT
#	Modification time:	15. 06. 2019 20:15

#	Program:	/corina/corina34_cracker 3.40 0067  02.08.2006

@<TRIPOS>MOLECULE
ASD02030605
  67   70    0    0    0
SMALL
NO_CHARGES


@<TRIPOS>ATOM
   1 C1             0.0046     1.3648    -0.0887 C.ar    
   2 C2             0.0005    -0.0137    -0.0727 C.ar    
   3 C3             1.2043    -0.7040    -0.0715 C.ar    
   4 C4             2.3973    -0.0024    -0.0805 C.ar    
   5 C5             2.3991     1.3865    -0.0901 C.ar    
   6 C6             1.2023     2.0677    -0.1033 C.ar    
   7 C7             1.1324     3.5737    -0.1477 C.3     
   8 C8             3.7348     2.0821    -0.0706 C.3     
   9 C9             3.6065     3.5203    -0.5698 C.3     
  10 N10            2.4603     4.1381     0.1156 N.am    
  11 C11            0.6544     4.0206    -1.5307 C.3     
  12 O12            1.5046     3.4595    -2.5328 O.3     
  13 C13            1.2156     3.7606    -3.8270 C.ar    
  14 C14            2.6247     5.1813     0.9529 C.2     
  15 O15            3.7431     5.5732     1.2233 O.2     
  16 C16            1.4448     5.8491     1.5426 C.ar    
  17 C17            0.6268     4.3733    -6.4616 C.ar    
  18 C18           -0.1542     4.8896    -5.4384 C.ar    
  19 C19            0.1394     4.5837    -4.1237 C.ar    
  20 C20            2.0003     3.2493    -4.8499 C.ar    
  21 C21            1.7067     3.5552    -6.1645 C.ar    
  22 C22            1.5044     6.3605     2.8396 C.ar    
  23 C23            0.2682     5.9757     0.8021 C.ar    
  24 C24           -0.8294     6.6001     1.3573 C.ar    
  25 C25           -0.7664     7.1011     2.6455 C.ar    
  26 C26            0.3987     6.9834     3.3841 C.ar    
  27 Cl27           0.4700     7.6206     4.9973 Cl      
  28 O28            1.2117    -2.0629    -0.0610 O.3     
  29 C29           -0.0517    -2.7176     0.0704 C.3     
  30 O30            0.3378     4.6744    -7.7558 O.3     
  31 C31            1.1840     4.1080    -8.7583 C.3     
  32 C32           -0.9160    -2.4087    -1.1537 C.3     
  33 C33            0.7067     4.5557   -10.1413 C.3     
  34 C34            0.1652    -4.2287     0.1734 C.3     
  35 C35           -0.7570    -2.2165     1.3323 C.3     
  36 H36           -0.9318     1.9028    -0.0944 H       
  37 H37           -0.9348    -0.5536    -0.0609 H       
  38 H38            3.3344    -0.5393    -0.0797 H       
  39 H39            0.4317     3.9267     0.6091 H       
  40 H40            4.1202     2.0896     0.9490 H       
  41 H41            4.4303     1.5407    -0.7119 H       
  42 H42            4.5168     4.0735    -0.3385 H       
  43 H43            3.4363     3.5230    -1.6465 H       
  44 H44           -0.3686     3.6793    -1.6894 H       
  45 H45            0.6883     5.1083    -1.5929 H       
  46 H46           -0.9951     5.5266    -5.6697 H       
  47 H47           -0.4693     4.9852    -3.3270 H       
  48 H48            2.8412     2.6123    -4.6186 H       
  49 H49            2.3148     3.1531    -6.9613 H       
  50 H50            2.4130     6.2690     3.4162 H       
  51 H51            0.2174     5.5858    -0.2038 H       
  52 H52           -1.7400     6.6984     0.7850 H       
  53 H53           -1.6283     7.5897     3.0752 H       
  54 H54            2.2088     4.4443    -8.6012 H       
  55 H55            1.1447     3.0205    -8.6949 H       
  56 H56           -0.4581    -2.8454    -2.0413 H       
  57 H57           -1.9105    -2.8317    -1.0124 H       
  58 H58           -0.9949    -1.3289    -1.2795 H       
  59 H59           -0.3182     4.2194   -10.2984 H       
  60 H60            0.7459     5.6432   -10.2047 H       
  61 H61            1.3521     4.1236   -10.9059 H       
  62 H62            0.7809    -4.4488     1.0455 H       
  63 H63           -0.7985    -4.7281     0.2737 H       
  64 H64            0.6677    -4.5857    -0.7256 H       
  65 H65           -0.8296    -1.1294     1.3005 H       
  66 H66           -1.7574    -2.6461     1.3843 H       
  67 H67           -0.1864    -2.5170     2.2111 H       
@<TRIPOS>BOND
   1    1    2 ar
   2    1    6 ar
   3    1   36 1
   4    2    3 ar
   5    2   37 1
   6    3    4 ar
   7    3   28 1
   8    4    5 ar
   9    4   38 1
  10    5    6 ar
  11    5    8 1
  12    6    7 1
  13    7   10 1
  14    7   11 1
  15    7   39 1
  16    8    9 1
  17    8   40 1
  18    8   41 1
  19    9   10 1
  20    9   42 1
  21    9   43 1
  22   10   14 am
  23   11   12 1
  24   11   44 1
  25   11   45 1
  26   12   13 1
  27   13   20 ar
  28   13   19 ar
  29   14   15 2
  30   14   16 1
  31   16   23 ar
  32   16   22 ar
  33   17   18 ar
  34   17   21 ar
  35   17   30 1
  36   18   19 ar
  37   18   46 1
  38   19   47 1
  39   20   21 ar
  40   20   48 1
  41   21   49 1
  42   22   26 ar
  43   22   50 1
  44   23   24 ar
  45   23   51 1
  46   24   25 ar
  47   24   52 1
  48   25   26 ar
  49   25   53 1
  50   26   27 1
  51   28   29 1
  52   29   32 1
  53   29   34 1
  54   29   35 1
  55   30   31 1
  56   31   33 1
  57   31   54 1
  58   31   55 1
  59   32   56 1
  60   32   57 1
  61   32   58 1
  62   33   59 1
  63   33   60 1
  64   33   61 1
  65   34   62 1
  66   34   63 1
  67   34   64 1
  68   35   65 1
  69   35   66 1
  70   35   67 1

#	End of record

