#	Name: ASD01900534
#	Creating user name:	WinNT
#	Creation time:	15. 06. 2019 19:52

#	Modifying user name:	WinNT
#	Modification time:	15. 06. 2019 19:52

#	Program:	/corina/corina34_cracker 3.40 0067  02.08.2006

@<TRIPOS>MOLECULE
ASD01900534
  26   28    0    0    0
SMALL
NO_CHARGES


@<TRIPOS>ATOM
   1 O1             0.0258     1.4081     0.3638 O.3     
   2 N2             0.0457    -0.0051     0.3601 N.2     
   3 C3             1.2467    -0.4255     0.0734 C.2     
   4 C4             2.0882     0.7639    -0.1286 C.ar    
   5 C5             1.2567     1.8761     0.0693 C.ar    
   6 C6             1.7842     3.1573    -0.0577 C.ar    
   7 C7             3.1166     3.3242    -0.3762 C.ar    
   8 C8             3.9379     2.2236    -0.5721 C.ar    
   9 C9             3.4333     0.9483    -0.4506 C.ar    
  10 N10            1.6549    -1.7492    -0.0227 N.pl3   
  11 F11            0.9931     4.2363     0.1301 F       
  12 C12            0.7168    -2.7794     0.0861 C.ar    
  13 C13           -0.5986    -2.5673    -0.3067 C.ar    
  14 C14           -1.5236    -3.5883    -0.1977 C.ar    
  15 C15           -1.1399    -4.8208     0.3025 C.ar    
  16 C16            0.1687    -5.0340     0.6940 C.ar    
  17 C17            1.0992    -4.0193     0.5821 C.ar    
  18 Cl18          -3.1681    -3.3249    -0.6876 Cl      
  19 H19            3.5231     4.3200    -0.4741 H       
  20 H20            4.9788     2.3679    -0.8217 H       
  21 H21            4.0763     0.0941    -0.6032 H       
  22 H22            2.5911    -1.9589    -0.1655 H       
  23 H23           -0.8982    -1.6057    -0.6966 H       
  24 H24           -1.8644    -5.6172     0.3872 H       
  25 H25            0.4648    -5.9966     1.0841 H       
  26 H26            2.1222    -4.1884     0.8841 H       
@<TRIPOS>BOND
   1    1    2 1
   2    1    5 1
   3    2    3 2
   4    3    4 1
   5    3   10 1
   6    4    5 ar
   7    4    9 ar
   8    5    6 ar
   9    6    7 ar
  10    6   11 1
  11    7    8 ar
  12    7   19 1
  13    8    9 ar
  14    8   20 1
  15    9   21 1
  16   10   12 1
  17   10   22 1
  18   12   13 ar
  19   12   17 ar
  20   13   14 ar
  21   13   23 1
  22   14   15 ar
  23   14   18 1
  24   15   16 ar
  25   15   24 1
  26   16   17 ar
  27   16   25 1
  28   17   26 1

#	End of record

