#	Name: ASD02508341
#	Creating user name:	WinNT
#	Creation time:	15. 06. 2019 20:24

#	Modifying user name:	WinNT
#	Modification time:	15. 06. 2019 20:24

#	Program:	/corina/corina34_cracker 3.40 0067  02.08.2006

@<TRIPOS>MOLECULE
ASD02508341
  41   44    0    0    0
SMALL
NO_CHARGES


@<TRIPOS>ATOM
   1 C1            -0.0218     1.7577     0.0117 C.2     
   2 S2             0.0021    -0.0041     0.0020 S.o2    
   3 C3             0.7058    -0.5077    -1.5328 C.ar    
   4 C4             2.0718    -0.6929    -1.6380 C.ar    
   5 C5            -0.1094    -0.7224    -2.6280 C.ar    
   6 C6             0.4418    -1.1197    -3.8372 C.ar    
   7 C7             1.8158    -1.2981    -3.9450 C.ar    
   8 C8             2.6275    -1.0869    -2.8404 C.ar    
   9 O9            -0.3744    -1.3347    -4.9050 O.3     
  10 C10            0.2477    -1.3686    -6.1941 C.3     
  11 C11            1.4999    -2.2508    -6.1005 C.3     
  12 O12            2.3781    -1.6805    -5.1240 O.3     
  13 O13            0.9197    -0.3985     1.0128 O.2     
  14 O14           -1.3554    -0.4236    -0.0220 O.2     
  15 C15            1.1438     2.6451     0.0053 C.ar    
  16 C16            0.6340     3.9564     0.0167 C.ar    
  17 N17           -0.7393     3.8582     0.0290 N.am    
  18 C18           -1.1116     2.5415     0.0204 C.2     
  19 C19            2.5236     2.4342    -0.0090 C.ar    
  20 C20            3.3734     3.5044    -0.0119 C.ar    
  21 C21            2.8756     4.7999    -0.0002 C.ar    
  22 C22            1.5173     5.0308     0.0139 C.ar    
  23 S23           -1.7849     5.1423     0.0453 S.o2    
  24 O24           -1.3451     5.9658    -1.0260 O.2     
  25 O25           -3.0740     4.5448     0.0285 O.2     
  26 C26           -1.4801     5.9540     1.6387 C.3     
  27 H27            2.7057    -0.5291    -0.7791 H       
  28 H28           -1.1766    -0.5810    -2.5421 H       
  29 H29            3.6955    -1.2262    -2.9211 H       
  30 H30           -0.4437    -1.7881    -6.9249 H       
  31 H31            0.5307    -0.3591    -6.4923 H       
  32 H32            1.2176    -3.2588    -5.7968 H       
  33 H33            1.9992    -2.2843    -7.0689 H       
  34 H34           -2.1312     2.1854     0.0269 H       
  35 H35            2.9181     1.4289    -0.0174 H       
  36 H36            4.4409     3.3408    -0.0230 H       
  37 H37            3.5599     5.6355    -0.0023 H       
  38 H38            1.1398     6.0426     0.0228 H       
  39 H39           -0.4399     6.2755     1.6896 H       
  40 H40           -2.1336     6.8210     1.7357 H       
  41 H41           -1.6838     5.2531     2.4483 H       
@<TRIPOS>BOND
   1    1    2 1
   2    1   15 1
   3    1   18 2
   4    2    3 1
   5    2   13 2
   6    2   14 2
   7    3    4 ar
   8    3    5 ar
   9    4    8 ar
  10    4   27 1
  11    5    6 ar
  12    5   28 1
  13    6    7 ar
  14    6    9 1
  15    7    8 ar
  16    7   12 1
  17    8   29 1
  18    9   10 1
  19   10   11 1
  20   10   30 1
  21   10   31 1
  22   11   12 1
  23   11   32 1
  24   11   33 1
  25   15   16 ar
  26   15   19 ar
  27   16   17 1
  28   16   22 ar
  29   17   18 1
  30   17   23 am
  31   18   34 1
  32   19   20 ar
  33   19   35 1
  34   20   21 ar
  35   20   36 1
  36   21   22 ar
  37   21   37 1
  38   22   38 1
  39   23   24 2
  40   23   25 2
  41   23   26 1
  42   26   39 1
  43   26   40 1
  44   26   41 1

#	End of record

