#	Name: ASD02562104
#	Creating user name:	WinNT
#	Creation time:	15. 06. 2019 20:25

#	Modifying user name:	WinNT
#	Modification time:	15. 06. 2019 20:25

#	Program:	/corina/corina34_cracker 3.40 0067  02.08.2006

@<TRIPOS>MOLECULE
ASD02562104
  51   55    0    0    0
SMALL
NO_CHARGES


@<TRIPOS>ATOM
   1 C1             0.0853     1.8413    -0.8013 C.ar    
   2 N2             0.5129     0.8971    -1.6235 N.ar    
   3 C3            -0.2162     0.5338    -2.6740 C.ar    
   4 C4            -1.4499     1.1654    -2.9023 C.ar    
   5 C5            -1.8643     2.1632    -2.0025 C.ar    
   6 N6            -1.0754     2.4604    -0.9760 N.ar    
   7 N7            -3.0710     2.8181    -2.1796 N.pl3   
   8 N8             0.8743     2.1919     0.2835 N.pl3   
   9 C9            -3.5229     3.7259    -1.2146 C.ar    
  10 C10            2.0692     1.5159     0.5236 C.ar    
  11 C11            3.2838     2.1788     0.3734 C.ar    
  12 C12           -4.2677     4.8331    -1.5978 C.ar    
  13 C13           -4.4217     5.5270     0.6925 C.ar    
  14 C14           -3.6790     4.4140     1.0808 C.ar    
  15 C15           -3.2313     3.5160     0.1268 C.ar    
  16 C16            2.0442     0.1813     0.9183 C.ar    
  17 C17            3.2216    -0.4899     1.1568 C.ar    
  18 C18            4.4457     0.1713     1.0015 C.ar    
  19 C19            4.4660     1.5150     0.6095 C.ar    
  20 C20            3.3044     3.6253    -0.0487 C.3     
  21 C21            0.7258    -0.5294     1.0852 C.3     
  22 C22            5.7059    -0.5415     1.2556 C.2     
  23 C23            6.8853     0.0980     1.1053 C.2     
  24 C24            8.1129    -0.5964     1.3528 C.1     
  25 N25            9.0868    -1.1472     1.5492 N.1     
  26 N26           -0.0658    -0.3804    -3.6860 N.pl3   
  27 C27           -1.1695    -0.2928    -4.4832 C.2     
  28 N28           -1.9798     0.6145    -4.0216 N.2     
  29 C29           -4.7150     5.7300    -0.6459 C.ar    
  30 O30           -4.7396     6.2494     1.8075 O.3     
  31 C31           -4.5354     5.3541     2.9165 C.3     
  32 O32           -3.5318     4.4395     2.4377 O.3     
  33 H33           -3.6034     2.6479    -2.9724 H       
  34 H34            0.5948     2.9078     0.8754 H       
  35 H35           -4.4974     4.9940    -2.6407 H       
  36 H36           -2.6558     2.6524     0.4259 H       
  37 H37            3.2013    -1.5252     1.4638 H       
  38 H38            5.4082     2.0289     0.4884 H       
  39 H39            3.2740     4.2622     0.8353 H       
  40 H40            4.2164     3.8269    -0.6105 H       
  41 H41            2.4377     3.8330    -0.6762 H       
  42 H42            0.4863    -1.0704     0.1697 H       
  43 H43            0.7946    -1.2325     1.9152 H       
  44 H44           -0.0570     0.2006     1.2912 H       
  45 H45            5.6883    -1.5768     1.5626 H       
  46 H46            6.9029     1.1333     0.7983 H       
  47 H47            0.6871    -0.9788    -3.8117 H       
  48 H48           -1.3444    -0.8881    -5.3672 H       
  49 H49           -5.2939     6.5908    -0.9463 H       
  50 H50           -4.1722     5.8997     3.7874 H       
  51 H51           -5.4566     4.8219     3.1537 H       
@<TRIPOS>BOND
   1    1    2 ar
   2    1    8 1
   3    1    6 ar
   4    2    3 ar
   5    3    4 ar
   6    3   26 1
   7    4    5 ar
   8    4   28 1
   9    5    6 ar
  10    5    7 1
  11    7    9 1
  12    7   33 1
  13    8   10 1
  14    8   34 1
  15    9   12 ar
  16    9   15 ar
  17   10   11 ar
  18   10   16 ar
  19   11   20 1
  20   11   19 ar
  21   12   29 ar
  22   12   35 1
  23   13   14 ar
  24   13   30 1
  25   13   29 ar
  26   14   15 ar
  27   14   32 1
  28   15   36 1
  29   16   17 ar
  30   16   21 1
  31   17   18 ar
  32   17   37 1
  33   18   19 ar
  34   18   22 1
  35   19   38 1
  36   20   39 1
  37   20   40 1
  38   20   41 1
  39   21   42 1
  40   21   43 1
  41   21   44 1
  42   22   23 2
  43   22   45 1
  44   23   24 1
  45   23   46 1
  46   24   25 3
  47   26   27 1
  48   26   47 1
  49   27   28 2
  50   27   48 1
  51   29   49 1
  52   30   31 1
  53   31   32 1
  54   31   50 1
  55   31   51 1

#	End of record

