#	Name: ASD01885405
#	Creating user name:	WinNT
#	Creation time:	15. 06. 2019 19:49

#	Modifying user name:	WinNT
#	Modification time:	15. 06. 2019 19:49

#	Program:	/corina/corina34_cracker 3.40 0067  02.08.2006

@<TRIPOS>MOLECULE
ASD01885405
  28   30    0    0    0
SMALL
NO_CHARGES


@<TRIPOS>ATOM
   1 C1            -0.0168     1.3901     0.0097 C.ar    
   2 C2             0.0021    -0.0041     0.0020 C.ar    
   3 N3            -1.1146    -0.7758     0.0188 N.2     
   4 C4            -2.1895    -0.5679    -0.6483 C.2     
   5 C5            -2.3488     0.6300    -1.5467 C.3     
   6 C6            -2.2789     1.8702    -0.6918 C.2     
   7 N7            -1.1833     2.1456     0.0182 N.am    
   8 C8             1.1902     2.0914     0.0019 C.ar    
   9 C9             2.3956     1.4234    -0.0174 C.ar    
  10 C10            2.4205     0.0335    -0.0304 C.ar    
  11 C11            1.2374    -0.6752    -0.0205 C.ar    
  12 C12           -3.3009    -1.5290    -0.5328 C.ar    
  13 C13           -3.2001    -2.6610     0.2914 C.ar    
  14 C14           -4.2860    -3.5165     0.3477 C.ar    
  15 N15           -5.3694    -3.2553    -0.3593 N.ar    
  16 N16           -5.4696    -2.2235    -1.1146 N.ar    
  17 C17           -4.4976    -1.3420    -1.2371 C.ar    
  18 O18           -3.2277     2.6247    -0.6493 O.2     
  19 O19            3.6094    -0.6262    -0.0533 O.3     
  20 Br20           4.0161     2.3979    -0.0270 Br      
  21 H21           -1.5467     0.6459    -2.2845 H       
  22 H22           -3.3136     0.5853    -2.0520 H       
  23 H23           -1.2024     2.9337     0.5834 H       
  24 H24            1.1792     3.1713     0.0109 H       
  25 H25            1.2600    -1.7549    -0.0304 H       
  26 H26           -2.3046    -2.8576     0.8622 H       
  27 H27           -4.2470    -4.3984     0.9700 H       
  28 H28           -4.6196    -0.4851    -1.8830 H       
@<TRIPOS>BOND
   1    1    2 ar
   2    1    8 ar
   3    1    7 1
   4    2    3 1
   5    2   11 ar
   6    3    4 2
   7    4    5 1
   8    4   12 1
   9    5    6 1
  10    5   21 1
  11    5   22 1
  12    6    7 am
  13    6   18 2
  14    7   23 1
  15    8    9 ar
  16    8   24 1
  17    9   10 ar
  18    9   20 1
  19   10   11 ar
  20   10   19 1
  21   11   25 1
  22   12   13 ar
  23   12   17 ar
  24   13   14 ar
  25   13   26 1
  26   14   15 ar
  27   14   27 1
  28   15   16 ar
  29   16   17 ar
  30   17   28 1

#	End of record

