#	Name: ASD01880038
#	Creating user name:	WinNT
#	Creation time:	15. 06. 2019 19:39

#	Modifying user name:	WinNT
#	Modification time:	15. 06. 2019 19:39

#	Program:	/corina/corina34_cracker 3.40 0067  02.08.2006

@<TRIPOS>MOLECULE
ASD01880038
  50   51    0    0    0
SMALL
NO_CHARGES


@<TRIPOS>ATOM
   1 C1            -0.0167     1.3837     0.0096 C.ar    
   2 C2             0.0021    -0.0041     0.0020 C.ar    
   3 C3            -1.1902    -0.7236     0.0096 C.ar    
   4 C4            -2.3894    -0.0731     0.0250 C.ar    
   5 C5            -2.4283     1.3282     0.0333 C.ar    
   6 C6            -1.2262     2.0580     0.0306 C.ar    
   7 C7            -3.7147     2.0287     0.0499 C.2     
   8 C8            -5.0006     1.2429     0.0580 C.3     
   9 C9            -6.1879     2.2078     0.0750 C.3     
  10 C10           -7.4911     1.4149    -0.0425 C.3     
  11 C11           -6.1864     2.9950     1.3869 C.3     
  12 O12           -1.2513     3.4140     0.0391 O.3     
  13 O13            1.1881    -0.6630    -0.0133 O.3     
  14 C14            1.1368    -2.0911    -0.0205 C.3     
  15 C15            2.5599    -2.6525    -0.0376 C.3     
  16 C16            2.5050    -4.1815    -0.0453 C.3     
  17 C17            3.9282    -4.7429    -0.0625 C.3     
  18 S18            3.8630    -6.5557    -0.0715 S.3     
  19 C19            5.5644    -7.0134    -0.0909 C.ar    
  20 C20            5.9446    -8.3560    -0.1019 C.ar    
  21 C21            7.2865    -8.6719    -0.1169 C.ar    
  22 N22            8.2052    -7.7237    -0.1205 N.ar    
  23 C23            7.8862    -6.4427    -0.1104 C.ar    
  24 C24            6.5669    -6.0427    -0.1015 C.ar    
  25 Br25           1.6072     2.3526    -0.0007 Br      
  26 O26           -3.7450     3.2417     0.0571 O.2     
  27 H27           -1.1655    -1.8033     0.0028 H       
  28 H28           -3.3097    -0.6383     0.0304 H       
  29 H29           -5.0514     0.6201    -0.8351 H       
  30 H30           -5.0340     0.6099     0.9447 H       
  31 H31           -6.1063     2.8991    -0.7637 H       
  32 H32           -7.5727     0.7235     0.7962 H       
  33 H33           -8.3370     2.1023    -0.0303 H       
  34 H34           -7.4922     0.8540    -0.9771 H       
  35 H35           -6.2680     2.3037     2.2257 H       
  36 H36           -5.2579     3.5599     1.4707 H       
  37 H37           -7.0322     3.6824     1.3991 H       
  38 H38           -1.2532     3.8018     0.9249 H       
  39 H39            0.6191    -2.4405     0.8728 H       
  40 H40            0.6014    -2.4310    -0.9070 H       
  41 H41            3.0776    -2.3031    -0.9310 H       
  42 H42            3.0953    -2.3126     0.8489 H       
  43 H43            1.9873    -4.5309     0.8480 H       
  44 H44            1.9696    -4.5214    -0.9318 H       
  45 H45            4.4458    -4.3934    -0.9558 H       
  46 H46            4.4635    -4.4030     0.8241 H       
  47 H47            5.1983    -9.1366    -0.0984 H       
  48 H48            7.5901    -9.7083    -0.1255 H       
  49 H49            8.6689    -5.6985    -0.1138 H       
  50 H50            6.3130    -4.9930    -0.0933 H       
@<TRIPOS>BOND
   1    1    2 ar
   2    1   25 1
   3    1    6 ar
   4    2    3 ar
   5    2   13 1
   6    3    4 ar
   7    3   27 1
   8    4    5 ar
   9    4   28 1
  10    5    6 ar
  11    5    7 1
  12    6   12 1
  13    7    8 1
  14    7   26 2
  15    8    9 1
  16    8   29 1
  17    8   30 1
  18    9   10 1
  19    9   11 1
  20    9   31 1
  21   10   32 1
  22   10   33 1
  23   10   34 1
  24   11   35 1
  25   11   36 1
  26   11   37 1
  27   12   38 1
  28   13   14 1
  29   14   15 1
  30   14   39 1
  31   14   40 1
  32   15   16 1
  33   15   41 1
  34   15   42 1
  35   16   17 1
  36   16   43 1
  37   16   44 1
  38   17   18 1
  39   17   45 1
  40   17   46 1
  41   18   19 1
  42   19   20 ar
  43   19   24 ar
  44   20   21 ar
  45   20   47 1
  46   21   22 ar
  47   21   48 1
  48   22   23 ar
  49   23   24 ar
  50   23   49 1
  51   24   50 1

#	End of record

