#	Name: ASD01883161
#	Creating user name:	WinNT
#	Creation time:	15. 06. 2019 19:45

#	Modifying user name:	WinNT
#	Modification time:	15. 06. 2019 19:45

#	Program:	/corina/corina34_cracker 3.40 0067  02.08.2006

@<TRIPOS>MOLECULE
ASD01883161
  51   52    0    0    0
SMALL
NO_CHARGES


@<TRIPOS>ATOM
   1 N1            -0.0202     1.3490     0.0062 N.am    
   2 C2            -0.0006     0.0032     0.0091 C.2     
   3 C3            -1.2180    -0.7213     0.0183 C.2     
   4 C4            -2.4288    -0.0063     0.0241 C.2     
   5 C5            -2.3828     1.4018     0.0207 C.2     
   6 C6            -1.1899     2.0386     0.0171 C.2     
   7 O7             1.0637    -0.5916     0.0035 O.2     
   8 C8            -1.2155    -2.1533     0.0210 C.1     
   9 N9            -1.2136    -3.2893     0.0232 N.1     
  10 C10            1.2465     2.0849    -0.0027 C.3     
  11 C11            1.6791     2.3379    -1.4483 C.3     
  12 C12            3.0020     3.1065    -1.4577 C.3     
  13 C13            4.1032     2.2337    -0.8525 C.3     
  14 C14            3.3715     3.4682    -2.8977 C.3     
  15 C15           -3.7238    -0.7177     0.0332 C.ar    
  16 C16           -4.5767    -0.6050     1.1334 C.ar    
  17 C17           -5.7841    -1.2693     1.1389 C.ar    
  18 C18           -6.1542    -2.0510     0.0525 C.ar    
  19 C19           -5.3076    -2.1671    -1.0462 C.ar    
  20 C20           -4.1007    -1.5003    -1.0614 C.ar    
  21 O21           -7.3448    -2.7044     0.0623 O.3     
  22 C22           -8.1102    -2.6401     1.2673 C.3     
  23 F23           -5.6712    -2.9290    -2.1010 F       
  24 C24           -8.9474    -1.3595     1.2721 C.3     
  25 C25           -9.0363    -3.8552     1.3487 C.3     
  26 C26           -8.1972    -5.1289     1.4696 C.3     
  27 H27           -3.2998     1.9723     0.0247 H       
  28 H28           -1.1670     3.1184     0.0144 H       
  29 H29            1.1165     3.0381     0.5097 H       
  30 H30            2.0107     1.4991     0.5080 H       
  31 H31            1.8091     1.3847    -1.9608 H       
  32 H32            0.9149     2.9237    -1.9591 H       
  33 H33            2.8966     4.0182    -0.8697 H       
  34 H34            5.0457     2.7812    -0.8591 H       
  35 H35            3.8400     1.9760     0.1734 H       
  36 H36            4.2086     1.3219    -1.4405 H       
  37 H37            2.5869     4.0900    -3.3289 H       
  38 H38            4.3139     4.0158    -2.9044 H       
  39 H39            3.4768     2.5565    -3.4857 H       
  40 H40           -4.2900     0.0020     1.9794 H       
  41 H41           -6.4436    -1.1820     1.9897 H       
  42 H42           -3.4439    -1.5899    -1.9140 H       
  43 H43           -7.4377    -2.6377     2.1252 H       
  44 H44           -9.5312    -1.3105     2.1913 H       
  45 H45           -8.2876    -0.4938     1.2141 H       
  46 H46           -9.6199    -1.3619     0.4142 H       
  47 H47           -9.6826    -3.7617     2.2214 H       
  48 H48           -9.6477    -3.9071     0.4478 H       
  49 H49           -7.5509    -5.2224     0.5968 H       
  50 H50           -7.5859    -5.0770     2.3705 H       
  51 H51           -8.8570    -5.9945     1.5275 H       
@<TRIPOS>BOND
   1    1    2 am
   2    1   10 1
   3    1    6 1
   4    2    3 1
   5    2    7 2
   6    3    4 2
   7    3    8 1
   8    4    5 1
   9    4   15 1
  10    5    6 2
  11    5   27 1
  12    6   28 1
  13    8    9 3
  14   10   11 1
  15   10   29 1
  16   10   30 1
  17   11   12 1
  18   11   31 1
  19   11   32 1
  20   12   13 1
  21   12   14 1
  22   12   33 1
  23   13   34 1
  24   13   35 1
  25   13   36 1
  26   14   37 1
  27   14   38 1
  28   14   39 1
  29   15   16 ar
  30   15   20 ar
  31   16   17 ar
  32   16   40 1
  33   17   18 ar
  34   17   41 1
  35   18   19 ar
  36   18   21 1
  37   19   20 ar
  38   19   23 1
  39   20   42 1
  40   21   22 1
  41   22   24 1
  42   22   25 1
  43   22   43 1
  44   24   44 1
  45   24   45 1
  46   24   46 1
  47   25   26 1
  48   25   47 1
  49   25   48 1
  50   26   49 1
  51   26   50 1
  52   26   51 1

#	End of record

