#	Name: ASD04880515
#	Creating user name:	WinNT
#	Creation time:	15. 06. 2019 20:53

#	Modifying user name:	WinNT
#	Modification time:	15. 06. 2019 20:53

#	Program:	/corina/corina34_cracker 3.40 0067  02.08.2006

@<TRIPOS>MOLECULE
ASD04880515
  40   43    0    0    0
SMALL
NO_CHARGES


@<TRIPOS>ATOM
   1 C1            -0.0144     1.2117     0.0087 C.2     
   2 O2             0.0436    -0.0026     0.0315 O.2     
   3 N3             1.1185     1.9396    -0.0483 N.am    
   4 N4             1.1861     3.3239    -0.1910 N.2     
   5 C5             2.3859     3.7922    -0.2199 C.2     
   6 C6             3.3748     2.6563    -0.0856 C.3     
   7 C7             2.4860     1.4027     0.0364 C.3     
   8 C8             2.7403     5.2166    -0.3625 C.ar    
   9 C9             1.7367     6.1801    -0.4791 C.ar    
  10 C10            2.0778     7.5161    -0.6122 C.ar    
  11 C11            3.4152     7.8939    -0.6300 C.ar    
  12 C12            4.4097     6.9407    -0.5151 C.ar    
  13 C13            4.0815     5.6076    -0.3757 C.ar    
  14 N14            1.0736     8.4875    -0.7296 N.pl3   
  15 N15           -0.3070     8.2504    -0.7272 N.2     
  16 C16           -0.9197     9.3997    -0.8560 C.2     
  17 C17            0.0493    10.4052    -0.9446 C.2     
  18 C18            1.2662     9.8196    -0.8593 C.2     
  19 C19           -1.3275     1.8894     0.0373 C.ar    
  20 C20           -2.5036     1.1429    -0.0542 C.ar    
  21 C21           -3.7276     1.7831    -0.0268 C.ar    
  22 C22           -3.7879     3.1628     0.0912 C.ar    
  23 C23           -2.6252     3.9062     0.1817 C.ar    
  24 C24           -1.3969     3.2780     0.1617 C.ar    
  25 F25           -4.8674     1.0633    -0.1156 F       
  26 H26            4.0092     2.5951    -0.9699 H       
  27 H27            3.9799     2.7803     0.8124 H       
  28 H28            2.6455     0.9088     0.9950 H       
  29 H29            2.6800     0.7156    -0.7872 H       
  30 H30            0.6979     5.8848    -0.4659 H       
  31 H31            3.6784     8.9361    -0.7342 H       
  32 H32            5.4470     7.2407    -0.5303 H       
  33 H33            4.8612     4.8662    -0.2817 H       
  34 H34           -1.9892     9.5467    -0.8889 H       
  35 H35           -0.1406    11.4623    -1.0577 H       
  36 H36            2.2201    10.3252    -0.8911 H       
  37 H37           -2.4567     0.0679    -0.1465 H       
  38 H38           -4.7467     3.6593     0.1122 H       
  39 H39           -2.6789     4.9811     0.2727 H       
  40 H40           -0.4903     3.8601     0.2374 H       
@<TRIPOS>BOND
   1    1    2 2
   2    1    3 am
   3    1   19 1
   4    3    4 1
   5    3    7 1
   6    4    5 2
   7    5    6 1
   8    5    8 1
   9    6    7 1
  10    6   26 1
  11    6   27 1
  12    7   28 1
  13    7   29 1
  14    8    9 ar
  15    8   13 ar
  16    9   10 ar
  17    9   30 1
  18   10   11 ar
  19   10   14 1
  20   11   12 ar
  21   11   31 1
  22   12   13 ar
  23   12   32 1
  24   13   33 1
  25   14   15 1
  26   14   18 1
  27   15   16 2
  28   16   17 1
  29   16   34 1
  30   17   18 2
  31   17   35 1
  32   18   36 1
  33   19   20 ar
  34   19   24 ar
  35   20   21 ar
  36   20   37 1
  37   21   22 ar
  38   21   25 1
  39   22   23 ar
  40   22   38 1
  41   23   24 ar
  42   23   39 1
  43   24   40 1

#	End of record

