#	Name: ASD01910867
#	Creating user name:	WinNT
#	Creation time:	15. 06. 2019 19:56

#	Modifying user name:	WinNT
#	Modification time:	15. 06. 2019 19:56

#	Program:	/corina/corina34_cracker 3.40 0067  02.08.2006

@<TRIPOS>MOLECULE
ASD01910867
  49   52    0    0    0
SMALL
NO_CHARGES


@<TRIPOS>ATOM
   1 C1             0.0731     1.7597    -0.3753 C.ar    
   2 C2             0.0157     0.3773    -0.4026 C.ar    
   3 C3             1.1810    -0.3649    -0.3564 C.ar    
   4 C4             2.4094     0.2785    -0.2826 C.ar    
   5 C5             2.4628     1.6666    -0.2554 C.ar    
   6 C6             1.2953     2.4025    -0.3018 C.ar    
   7 N7             3.5888    -0.4682    -0.2354 N.3     
   8 C8             4.7647     0.4091    -0.1602 C.3     
   9 C9             6.0182    -0.4412     0.0719 C.3     
  10 N10            6.0803    -1.4764    -0.9711 N.am    
  11 C11            4.8880    -2.3069    -1.1991 C.3     
  12 C12            3.6789    -1.3831    -1.3811 C.3     
  13 C13            7.2002    -1.6595    -1.6983 C.2     
  14 C14            7.2853    -2.7844    -2.6542 C.ar    
  15 C15            7.9049    -2.6047    -3.8929 C.ar    
  16 C16            7.9854    -3.6536    -4.7879 C.ar    
  17 C17            7.4549    -4.8864    -4.4659 C.ar    
  18 C18            6.8315    -5.0810    -3.2292 C.ar    
  19 C19            6.7527    -4.0272    -2.3188 C.ar    
  20 C20            6.2806    -6.3602    -2.8962 C.1     
  21 O21            8.1401    -0.8999    -1.5683 O.2     
  22 C22            5.8289    -7.4089    -2.6233 C.1     
  23 C23            5.2780    -8.6881    -2.2904 C.ar    
  24 N24            4.6868    -8.8659    -1.1128 N.ar    
  25 C25            4.1678   -10.0269    -0.7700 C.ar    
  26 C26            4.2195   -11.1099    -1.6284 C.ar    
  27 C27            4.8276   -10.9692    -2.8688 C.ar    
  28 C28            5.3604    -9.7390    -3.2078 C.ar    
  29 Cl29          -1.5209    -0.4254    -0.4943 Cl      
  30 H30           -0.8383     2.3378    -0.4159 H       
  31 H31            1.1361    -1.4438    -0.3773 H       
  32 H32            3.4168     2.1697    -0.1977 H       
  33 H33            1.3367     3.4815    -0.2811 H       
  34 H34            4.8673     0.9607    -1.0947 H       
  35 H35            4.6430     1.1105     0.6652 H       
  36 H36            6.9048     0.1902     0.0142 H       
  37 H37            5.9643    -0.9128     1.0531 H       
  38 H38            5.0273    -2.9089    -2.0970 H       
  39 H39            4.7254    -2.9578    -0.3400 H       
  40 H40            2.7698    -1.9814    -1.4412 H       
  41 H41            3.7966    -0.8065    -2.2986 H       
  42 H42            8.3220    -1.6427    -4.1519 H       
  43 H43            8.4654    -3.5084    -5.7444 H       
  44 H44            7.5209    -5.7022    -5.1705 H       
  45 H45            6.2726    -4.1714    -1.3622 H       
  46 H46            3.6955   -10.1347     0.1952 H       
  47 H47            3.7908   -12.0572    -1.3363 H       
  48 H48            4.8796   -11.8013    -3.5554 H       
  49 H49            5.8401    -9.5946    -4.1645 H       
@<TRIPOS>BOND
   1    1    2 ar
   2    1    6 ar
   3    1   30 1
   4    2    3 ar
   5    2   29 1
   6    3    4 ar
   7    3   31 1
   8    4    5 ar
   9    4    7 1
  10    5    6 ar
  11    5   32 1
  12    6   33 1
  13    7    8 1
  14    7   12 1
  15    8    9 1
  16    8   34 1
  17    8   35 1
  18    9   10 1
  19    9   36 1
  20    9   37 1
  21   10   11 1
  22   10   13 am
  23   11   12 1
  24   11   38 1
  25   11   39 1
  26   12   40 1
  27   12   41 1
  28   13   14 1
  29   13   21 2
  30   14   15 ar
  31   14   19 ar
  32   15   16 ar
  33   15   42 1
  34   16   17 ar
  35   16   43 1
  36   17   18 ar
  37   17   44 1
  38   18   19 ar
  39   18   20 1
  40   19   45 1
  41   20   22 3
  42   22   23 1
  43   23   24 ar
  44   23   28 ar
  45   24   25 ar
  46   25   26 ar
  47   25   46 1
  48   26   27 ar
  49   26   47 1
  50   27   28 ar
  51   27   48 1
  52   28   49 1

#	End of record

