#	Name: ASD09530047
#	Creating user name:	WinNT
#	Creation time:	15. 06. 2019 21:22

#	Modifying user name:	WinNT
#	Modification time:	15. 06. 2019 21:22

#	Program:	/corina/corina34_cracker 3.40 0067  02.08.2006

@<TRIPOS>MOLECULE
ASD09530047
  57   60    0    0    0
SMALL
NO_CHARGES


@<TRIPOS>ATOM
   1 C1            -0.0168     1.3904     0.0097 C.ar    
   2 C2             0.0021    -0.0041     0.0020 C.ar    
   3 C3             1.2223    -0.6792    -0.0133 C.ar    
   4 C4             2.4028     0.0352    -0.0207 C.ar    
   5 C5             2.3776     1.4183    -0.0130 C.ar    
   6 C6             1.1703     2.0937     0.0021 C.ar    
   7 C7             3.6705     2.1925    -0.0212 C.3     
   8 C8             4.0879     2.4582    -1.4447 C.2     
   9 N9             5.2224     3.1403    -1.6981 N.am    
  10 O10            3.4029     2.0583    -2.3622 O.2     
  11 C11            5.6282     3.3985    -3.0819 C.3     
  12 C12            6.5045     4.6236    -3.1281 C.ar    
  13 N13            7.1832     4.9788    -2.0546 N.ar    
  14 C14            7.9626     6.0418    -2.0462 C.ar    
  15 C15            8.0959     6.8309    -3.1796 C.ar    
  16 C16            7.3941     6.4852    -4.3297 C.ar    
  17 C17            6.5905     5.3567    -4.2966 C.ar    
  18 O18            8.9003     7.9263    -3.1660 O.3     
  19 C19            9.5858     8.2128    -1.9453 C.3     
  20 C20           10.4361     9.4725    -2.1214 C.3     
  21 C21            6.4055     2.1949    -3.6186 C.3     
  22 F22            9.6093    10.5503    -2.4559 F       
  23 F23           11.1072     9.7530    -0.9264 F       
  24 F24           11.3694     9.2662    -3.1430 F       
  25 C25           -1.2689    -0.7651     0.0106 C.ar    
  26 C26           -1.4884    -1.8008    -0.9284 C.ar    
  27 C27           -2.7117    -2.5140    -0.9000 C.ar    
  28 C28           -3.6846    -2.1819     0.0583 C.ar    
  29 C29           -3.4489    -1.1809     0.9515 C.ar    
  30 C30           -2.2515    -0.4745     0.9403 C.ar    
  31 C31           -0.5185    -2.1332    -1.8852 C.ar    
  32 C32           -0.7637    -3.1357    -2.7740 C.ar    
  33 C33           -1.9667    -3.8380    -2.7478 C.ar    
  34 C34           -2.9301    -3.5430    -1.8326 C.ar    
  35 H35           -0.9587     1.9188     0.0170 H       
  36 H36            1.2432    -1.7590    -0.0189 H       
  37 H37            3.3483    -0.4865    -0.0322 H       
  38 H38            1.1569     3.1736     0.0084 H       
  39 H39            3.5300     3.1400     0.4991 H       
  40 H40            4.4443     1.6129     0.4821 H       
  41 H41            5.7702     3.4601    -0.9643 H       
  42 H42            4.7424     3.5621    -3.6958 H       
  43 H43            8.5027     6.3013    -1.1477 H       
  44 H44            7.4769     7.0793    -5.2278 H       
  45 H45            6.0313     5.0584    -5.1711 H       
  46 H46            8.8587     8.3736    -1.1494 H       
  47 H47           10.2301     7.3731    -1.6847 H       
  48 H48            7.2912     2.0314    -3.0047 H       
  49 H49            5.7716     1.3088    -3.5852 H       
  50 H50            6.7074     2.3871    -4.6481 H       
  51 H51           -4.6202    -2.7207     0.0862 H       
  52 H52           -4.2037    -0.9343     1.6835 H       
  53 H53           -2.0899     0.3147     1.6597 H       
  54 H54            0.4183    -1.5966    -1.9174 H       
  55 H55           -0.0150    -3.3897    -3.5098 H       
  56 H56           -2.1372    -4.6283    -3.4639 H       
  57 H57           -3.8576    -4.0961    -1.8234 H       
@<TRIPOS>BOND
   1    1    2 ar
   2    1    6 ar
   3    1   35 1
   4    2    3 ar
   5    2   25 1
   6    3    4 ar
   7    3   36 1
   8    4    5 ar
   9    4   37 1
  10    5    6 ar
  11    5    7 1
  12    6   38 1
  13    7    8 1
  14    7   39 1
  15    7   40 1
  16    8    9 am
  17    8   10 2
  18    9   11 1
  19    9   41 1
  20   11   12 1
  21   11   21 1
  22   11   42 1
  23   12   13 ar
  24   12   17 ar
  25   13   14 ar
  26   14   15 ar
  27   14   43 1
  28   15   16 ar
  29   15   18 1
  30   16   17 ar
  31   16   44 1
  32   17   45 1
  33   18   19 1
  34   19   20 1
  35   19   46 1
  36   19   47 1
  37   20   22 1
  38   20   23 1
  39   20   24 1
  40   21   48 1
  41   21   49 1
  42   21   50 1
  43   25   26 ar
  44   25   30 ar
  45   26   27 ar
  46   26   31 ar
  47   27   28 ar
  48   27   34 ar
  49   28   29 ar
  50   28   51 1
  51   29   30 ar
  52   29   52 1
  53   30   53 1
  54   31   32 ar
  55   31   54 1
  56   32   33 ar
  57   32   55 1
  58   33   34 ar
  59   33   56 1
  60   34   57 1

#	End of record

