#	Name: ASD04230003
#	Creating user name:	WinNT
#	Creation time:	15. 06. 2019 20:48

#	Modifying user name:	WinNT
#	Modification time:	15. 06. 2019 20:48

#	Program:	/corina/corina34_cracker 3.40 0067  02.08.2006

@<TRIPOS>MOLECULE
ASD04230003
  48   52    0    0    0
SMALL
NO_CHARGES


@<TRIPOS>ATOM
   1 C1            -1.6544     4.6698    -1.6629 C.ar    
   2 C2            -2.6843     5.3533    -2.3085 C.ar    
   3 C3            -3.9244     4.7968    -2.4122 C.ar    
   4 C4            -4.1721     3.5317    -1.8572 C.ar    
   5 C5            -3.1246     2.8241    -1.2330 C.ar    
   6 C6            -1.8715     3.4067    -1.1343 C.ar    
   7 C7            -5.4654     2.9592    -1.9242 C.2     
   8 C8            -5.7052     1.8031    -1.1893 C.2     
   9 C9            -4.5965     1.2820    -0.3709 C.2     
  10 O10           -3.3339     1.5733    -0.7575 O.3     
  11 C11           -7.0124     1.1286    -1.2271 C.2     
  12 N12           -7.2145     0.0096    -0.5037 N.am    
  13 O13           -7.9107     1.5811    -1.9113 O.2     
  14 C14           -8.4870    -0.5682    -0.4501 C.ar    
  15 C15           -8.6208    -1.9496    -0.3832 C.ar    
  16 C16           -9.8768    -2.5241    -0.3302 C.ar    
  17 C17          -11.0052    -1.7289    -0.3433 C.ar    
  18 C18          -10.8804    -0.3421    -0.4102 C.ar    
  19 C19           -9.6158     0.2378    -0.4579 C.ar    
  20 C20          -12.0925     0.5141    -0.4244 C.2     
  21 O21           -4.8101     0.6104     0.6211 O.2     
  22 C22          -13.3763     0.0818    -0.2810 C.2     
  23 N23          -14.1814     1.1838    -0.3535 N.pl3   
  24 C24          -13.3662     2.2706    -0.5407 C.2     
  25 N25          -12.1112     1.8479    -0.5750 N.2     
  26 C26          -15.5355     1.3409    -0.2751 C.2     
  27 C27          -16.0928     2.5653    -0.3803 C.2     
  28 C28          -15.2844     3.6980    -0.5724 C.2     
  29 C29          -13.9341     3.5565    -0.6520 C.2     
  30 O30           -0.4294     5.2430    -1.5562 O.3     
  31 C31           -0.2695     6.5433    -2.1269 C.3     
  32 H32           -2.4983     6.3305    -2.7290 H       
  33 H33           -4.7152     5.3288    -2.9202 H       
  34 H34           -1.0677     2.8813    -0.6400 H       
  35 H35           -6.2417     3.4067    -2.5271 H       
  36 H36           -6.4773    -0.3951    -0.0202 H       
  37 H37           -7.7412    -2.5761    -0.3730 H       
  38 H38           -9.9758    -3.5983    -0.2787 H       
  39 H39          -11.9849    -2.1814    -0.3021 H       
  40 H40           -9.5141     1.3117    -0.5098 H       
  41 H41          -13.6975    -0.9393    -0.1376 H       
  42 H42          -16.1665     0.4768    -0.1279 H       
  43 H43          -17.1654     2.6749    -0.3169 H       
  44 H44          -15.7331     4.6768    -0.6563 H       
  45 H45          -13.3030     4.4205    -0.7990 H       
  46 H46           -0.4803     6.4995    -3.1954 H       
  47 H47           -0.9603     7.2375    -1.6484 H       
  48 H48            0.7540     6.8846    -1.9722 H       
@<TRIPOS>BOND
   1    1    2 ar
   2    1   30 1
   3    1    6 ar
   4    2    3 ar
   5    2   32 1
   6    3    4 ar
   7    3   33 1
   8    4    5 ar
   9    4    7 1
  10    5    6 ar
  11    5   10 1
  12    6   34 1
  13    7    8 2
  14    7   35 1
  15    8    9 1
  16    8   11 1
  17    9   10 1
  18    9   21 2
  19   11   12 am
  20   11   13 2
  21   12   14 1
  22   12   36 1
  23   14   15 ar
  24   14   19 ar
  25   15   16 ar
  26   15   37 1
  27   16   17 ar
  28   16   38 1
  29   17   18 ar
  30   17   39 1
  31   18   19 ar
  32   18   20 1
  33   19   40 1
  34   20   22 2
  35   20   25 1
  36   22   23 1
  37   22   41 1
  38   23   24 1
  39   23   26 1
  40   24   25 2
  41   24   29 1
  42   26   27 2
  43   26   42 1
  44   27   28 1
  45   27   43 1
  46   28   29 2
  47   28   44 1
  48   29   45 1
  49   30   31 1
  50   31   46 1
  51   31   47 1
  52   31   48 1

#	End of record

