#	Name: ASD09800046
#	Creating user name:	WinNT
#	Creation time:	15. 06. 2019 21:24

#	Modifying user name:	WinNT
#	Modification time:	15. 06. 2019 21:24

#	Program:	/corina/corina34_cracker 3.40 0067  02.08.2006

@<TRIPOS>MOLECULE
ASD09800046
  78   84    0    0    0
SMALL
NO_CHARGES


@<TRIPOS>ATOM
   1 C1            -3.2257     1.2271     2.8730 C.2     
   2 N2            -4.3107     0.5705     3.2414 N.2     
   3 C3            -5.0249    -0.1422     2.3606 C.2     
   4 C4            -4.6706    -0.2216     1.0651 C.2     
   5 C5            -2.8131     1.1830     1.5259 C.2     
   6 C6            -1.7572     1.7347     0.8087 C.2     
   7 N7            -3.5488     0.4414     0.6202 N.pl3   
   8 C8            -2.9487     0.5661    -0.5771 C.2     
   9 N9            -1.8929     1.3311    -0.4652 N.2     
  10 C10           -0.6885     2.6012     1.3462 C.ar    
  11 C11            0.1774     4.8218     1.8934 C.ar    
  12 C12            1.3606     4.2197     2.3737 C.ar    
  13 C13            1.5001     2.8482     2.3288 C.ar    
  14 C14            0.4888     2.0443     1.8209 C.ar    
  15 C15           -0.8575     4.0080     1.3746 C.ar    
  16 N16            2.3895     5.0113     2.8881 N.am    
  17 C17            3.6530     4.5427     2.9112 C.2     
  18 N18            4.6273     5.2608     3.5041 N.am    
  19 O19            3.9138     3.4721     2.3973 O.2     
  20 C20            5.9174     4.7307     3.6166 C.ar    
  21 C21            7.9570     4.4739     4.8511 C.ar    
  22 C22            6.6842     4.9990     4.7429 C.ar    
  23 C23            6.4315     3.9305     2.6048 C.ar    
  24 C24            7.7050     3.4083     2.7190 C.ar    
  25 C25            8.4680     3.6817     3.8394 C.ar    
  26 N26           -2.5027     1.9576     3.8012 N.pl3   
  27 C27           -3.4190    -0.0811    -1.8542 C.3     
  28 C28           -4.8340     0.2486    -2.3339 C.3     
  29 C29           -3.6229     0.8236    -3.0712 C.3     
  30 C30           -2.9000    -1.4982    -2.1059 C.3     
  31 C31            0.0093     6.2155     1.9208 C.ar    
  32 C32           -2.0316     4.6074     0.8975 C.ar    
  33 C33           -2.1622     5.9631     0.9388 C.ar    
  34 C34           -1.1442     6.7649     1.4492 C.ar    
  35 C35            9.8572     3.1103     3.9608 C.3     
  36 N36            9.7916     1.7993     4.6203 N.3     
  37 N37           10.3142    -0.9870     4.8828 N.3     
  38 C38            8.9705    -0.5054     4.5332 C.3     
  39 C39            9.0871     0.8215     3.7794 C.3     
  40 C40           11.1353     1.3178     4.9699 C.3     
  41 C41           11.0187    -0.0091     5.7237 C.3     
  42 C42           10.2486    -2.2980     5.5422 C.3     
  43 H43           -5.9067    -0.6662     2.6986 H       
  44 H44           -5.2643    -0.8041     0.3761 H       
  45 H45            2.4074     2.3930     2.6977 H       
  46 H46            0.6206     0.9727     1.7957 H       
  47 H47            2.1949     5.8984     3.2287 H       
  48 H48            4.4342     6.1451     3.8528 H       
  49 H49            8.5539     4.6824     5.7266 H       
  50 H50            6.2857     5.6179     5.5332 H       
  51 H51            5.8360     3.7163     1.7296 H       
  52 H52            8.1053     2.7856     1.9326 H       
  53 H53           -2.7384     1.9160     4.7412 H       
  54 H54           -1.7606     2.5109     3.5114 H       
  55 H55           -5.3950    -0.5439    -2.8290 H       
  56 H56           -5.4247     0.9336    -1.7257 H       
  57 H57           -3.4169     1.8868    -2.9481 H       
  58 H58           -3.3872     0.4092    -4.0514 H       
  59 H59           -3.1817    -2.1416    -1.2724 H       
  60 H60           -3.3346    -1.8860    -3.0272 H       
  61 H61           -1.8141    -1.4765    -2.1974 H       
  62 H62            0.7910     6.8488     2.3136 H       
  63 H63           -2.8287     3.9975     0.4988 H       
  64 H64           -3.0676     6.4222     0.5702 H       
  65 H65           -1.2714     7.8371     1.4716 H       
  66 H66           10.2911     2.9960     2.9675 H       
  67 H67           10.4768     3.7841     4.5526 H       
  68 H68            8.4739    -1.2408     3.9002 H       
  69 H69            8.3893    -0.3568     5.4433 H       
  70 H70            8.0904     1.1950     3.5445 H       
  71 H71            9.6450     0.6672     2.8558 H       
  72 H72           11.7165     1.1692     4.0598 H       
  73 H73           11.6319     2.0532     5.6029 H       
  74 H74           10.4608     0.1451     6.6472 H       
  75 H75           12.0154    -0.3827     5.9586 H       
  76 H76            9.7824    -3.0193     4.8711 H       
  77 H77           11.2565    -2.6308     5.7901 H       
  78 H78            9.6581    -2.2165     6.4548 H       
@<TRIPOS>BOND
   1    1    2 2
   2    1   26 1
   3    1    5 1
   4    2    3 1
   5    3    4 2
   6    3   43 1
   7    4    7 1
   8    4   44 1
   9    5    7 1
  10    5    6 2
  11    6    9 1
  12    6   10 1
  13    7    8 1
  14    8    9 2
  15    8   27 1
  16   10   15 ar
  17   10   14 ar
  18   11   12 ar
  19   11   15 ar
  20   11   31 ar
  21   12   13 ar
  22   12   16 1
  23   13   14 ar
  24   13   45 1
  25   14   46 1
  26   15   32 ar
  27   16   17 am
  28   16   47 1
  29   17   18 am
  30   17   19 2
  31   18   20 1
  32   18   48 1
  33   20   23 ar
  34   20   22 ar
  35   21   22 ar
  36   21   25 ar
  37   21   49 1
  38   22   50 1
  39   23   24 ar
  40   23   51 1
  41   24   25 ar
  42   24   52 1
  43   25   35 1
  44   26   53 1
  45   26   54 1
  46   27   28 1
  47   27   29 1
  48   27   30 1
  49   28   29 1
  50   28   55 1
  51   28   56 1
  52   29   57 1
  53   29   58 1
  54   30   59 1
  55   30   60 1
  56   30   61 1
  57   31   34 ar
  58   31   62 1
  59   32   33 ar
  60   32   63 1
  61   33   34 ar
  62   33   64 1
  63   34   65 1
  64   35   36 1
  65   35   66 1
  66   35   67 1
  67   36   40 1
  68   36   39 1
  69   37   38 1
  70   37   41 1
  71   37   42 1
  72   38   39 1
  73   38   68 1
  74   38   69 1
  75   39   70 1
  76   39   71 1
  77   40   41 1
  78   40   72 1
  79   40   73 1
  80   41   74 1
  81   41   75 1
  82   42   76 1
  83   42   77 1
  84   42   78 1

#	End of record

