#	Name: ASD01410629
#	Creating user name:	WinNT
#	Creation time:	15. 06. 2019 19:18

#	Modifying user name:	WinNT
#	Modification time:	15. 06. 2019 19:18

#	Program:	/corina/corina34_cracker 3.40 0067  02.08.2006

@<TRIPOS>MOLECULE
ASD01410629
  78   82    0    0    0
SMALL
NO_CHARGES


@<TRIPOS>ATOM
   1 C1            -3.5061     3.8314     0.5920 C.ar    
   2 C2            -5.2846     2.2396     0.8718 C.ar    
   3 C3            -4.4247     1.2091     0.5183 C.ar    
   4 C4            -3.0918     1.4966     0.1865 C.ar    
   5 C5            -2.6378     2.8169     0.2322 C.ar    
   6 O6            -3.0664     5.1175     0.6312 O.3     
   7 C7            -2.9224     5.7775    -0.5452 C.ar    
   8 N8            -4.8864    -0.1058     0.4820 N.am    
   9 C9            -4.6954    -0.9166     1.5414 C.2     
  10 C10           -4.0427    -0.3832     2.7906 C.3     
  11 O11           -5.0489    -2.0757     1.4895 O.2     
  12 C12           -4.8225    -0.8607     4.0173 C.3     
  13 C13           -1.9399    -0.3520     4.1395 C.3     
  14 C14           -2.7197    -0.8294     5.3662 C.3     
  15 C15           -4.1598    -0.3190     5.2855 C.3     
  16 C16           -2.0570    -0.2878     6.6344 C.3     
  17 N17           -3.1928     5.1571    -1.6820 N.ar    
  18 C18           -2.4979     7.1000    -0.5445 C.ar    
  19 C19           -2.3554     7.7622    -1.7516 C.ar    
  20 C20           -2.6441     7.0745    -2.9221 C.ar    
  21 C21           -3.0666     5.7618    -2.8477 C.ar    
  22 C22           -2.6026    -0.8936     2.8713 C.3     
  23 C23           -4.8280     3.5415     0.9081 C.ar    
  24 C24           -5.5794    -0.6061    -0.7079 C.3     
  25 C25           -6.8735     0.1935    -0.9395 C.3     
  26 C26           -6.7366     0.8623    -2.3229 C.3     
  27 C27           -5.7105    -0.0229    -3.0729 C.3     
  28 C28           -4.7012    -0.3953    -1.9586 C.3     
  29 O29           -4.0093    -1.6001    -2.2928 O.3     
  30 C30           -2.7874    -1.3906    -3.0035 C.3     
  31 C31           -2.1457    -2.7209    -3.3025 C.ar    
  32 C32           -2.4459    -3.3847    -4.4773 C.ar    
  33 C33           -1.8572    -4.6050    -4.7515 C.ar    
  34 C34           -0.9681    -5.1614    -3.8510 C.ar    
  35 C35           -0.6673    -4.4972    -2.6766 C.ar    
  36 C36           -1.2526    -3.2748    -2.4045 C.ar    
  37 C37           -2.1969     7.8047     0.7531 C.3     
  38 F38           -1.7910     9.1170     0.4880 F       
  39 F39           -3.3461     7.8241     1.5507 F       
  40 F40           -1.1741     7.1270     1.4254 F       
  41 C41           -2.1708     0.4090    -0.1898 C.2     
  42 O42           -2.5700    -0.7379    -0.2316 O.2     
  43 O43           -0.8862     0.6867    -0.4873 O.3     
  44 H44           -6.3109     2.0211     1.1277 H       
  45 H45           -1.6111     3.0449    -0.0132 H       
  46 H46           -4.0409     0.7065     2.7626 H       
  47 H47           -5.8485    -0.4970     3.9598 H       
  48 H48           -4.8243    -1.9503     4.0452 H       
  49 H49           -1.9381     0.7377     4.1116 H       
  50 H50           -0.9139    -0.7156     4.1970 H       
  51 H51           -2.7214    -1.9191     5.3941 H       
  52 H52           -4.1580     0.7706     5.2575 H       
  53 H53           -4.7154    -0.6592     6.1594 H       
  54 H54           -2.0552     0.8018     6.6065 H       
  55 H55           -2.6126    -0.6280     7.5083 H       
  56 H56           -1.0310    -0.6515     6.6919 H       
  57 H57           -2.0274     8.7908    -1.7820 H       
  58 H58           -2.5436     7.5620    -3.8805 H       
  59 H59           -3.2922     5.2220    -3.7555 H       
  60 H60           -2.6043    -1.9832     2.8992 H       
  61 H61           -2.0470    -0.5534     1.9974 H       
  62 H62           -5.5016     4.3394     1.1839 H       
  63 H63           -5.8109    -1.6644    -0.5874 H       
  64 H64           -7.7329    -0.4769    -0.9323 H       
  65 H65           -6.9860     0.9538    -0.1666 H       
  66 H66           -7.6942     0.8611    -2.8436 H       
  67 H67           -6.3590     1.8796    -2.2191 H       
  68 H68           -6.1905    -0.9158    -3.4735 H       
  69 H69           -5.2198     0.5418    -3.8657 H       
  70 H70           -3.9950     0.4189    -1.7960 H       
  71 H71           -2.9954    -0.8694    -3.9380 H       
  72 H72           -2.1116    -0.7897    -2.3950 H       
  73 H73           -3.1405    -2.9500    -5.1808 H       
  74 H74           -2.0923    -5.1239    -5.6690 H       
  75 H75           -0.5088    -6.1152    -4.0649 H       
  76 H76            0.0271    -4.9321    -1.9730 H       
  77 H77           -1.0175    -2.7559    -1.4869 H       
  78 H78           -0.3203    -0.0594    -0.7284 H       
@<TRIPOS>BOND
   1    1   23 ar
   2    1    6 1
   3    1    5 ar
   4    2    3 ar
   5    2   23 ar
   6    2   44 1
   7    3    4 ar
   8    3    8 1
   9    4    5 ar
  10    4   41 1
  11    5   45 1
  12    6    7 1
  13    7   18 ar
  14    7   17 ar
  15    8    9 am
  16    8   24 1
  17    9   11 2
  18    9   10 1
  19   10   12 1
  20   10   22 1
  21   10   46 1
  22   12   15 1
  23   12   47 1
  24   12   48 1
  25   13   14 1
  26   13   22 1
  27   13   49 1
  28   13   50 1
  29   14   15 1
  30   14   16 1
  31   14   51 1
  32   15   52 1
  33   15   53 1
  34   16   54 1
  35   16   55 1
  36   16   56 1
  37   17   21 ar
  38   18   19 ar
  39   18   37 1
  40   19   20 ar
  41   19   57 1
  42   20   21 ar
  43   20   58 1
  44   21   59 1
  45   22   60 1
  46   22   61 1
  47   23   62 1
  48   24   25 1
  49   24   28 1
  50   24   63 1
  51   25   26 1
  52   25   64 1
  53   25   65 1
  54   26   27 1
  55   26   66 1
  56   26   67 1
  57   27   28 1
  58   27   68 1
  59   27   69 1
  60   28   29 1
  61   28   70 1
  62   29   30 1
  63   30   31 1
  64   30   71 1
  65   30   72 1
  66   31   32 ar
  67   31   36 ar
  68   32   33 ar
  69   32   73 1
  70   33   34 ar
  71   33   74 1
  72   34   35 ar
  73   34   75 1
  74   35   36 ar
  75   35   76 1
  76   36   77 1
  77   37   38 1
  78   37   39 1
  79   37   40 1
  80   41   42 2
  81   41   43 1
  82   43   78 1

#	End of record

