#	Name: ASD01913642
#	Creating user name:	WinNT
#	Creation time:	15. 06. 2019 20:02

#	Modifying user name:	WinNT
#	Modification time:	15. 06. 2019 20:02

#	Program:	/corina/corina34_cracker 3.40 0067  02.08.2006

@<TRIPOS>MOLECULE
ASD01913642
  42   44    0    0    0
SMALL
NO_CHARGES


@<TRIPOS>ATOM
   1 C1            -0.0167     1.3781     0.0096 C.ar    
   2 C2             0.0021    -0.0041     0.0020 C.ar    
   3 C3             1.2084    -0.6789    -0.0132 C.ar    
   4 C4             2.3960     0.0285    -0.0212 C.ar    
   5 C5             2.3773     1.4107    -0.0145 C.ar    
   6 C6             1.1710     2.0855     0.0021 C.ar    
   7 C7             3.6720     2.1819    -0.0228 C.3     
   8 O8             4.0688     2.4320    -1.3726 O.3     
   9 C9             5.2213     3.1203    -1.5575 C.ar    
  10 N10            5.9165     3.5236    -0.5053 N.ar    
  11 C11            7.0417     4.1951    -0.6330 C.ar    
  12 C12            7.5436     4.5074    -1.8969 C.ar    
  13 C13            6.8311     4.0946    -3.0327 C.ar    
  14 C14            5.6602     3.3882    -2.8507 C.ar    
  15 C15            8.8050     5.2612    -2.0368 C.2     
  16 N16            9.4811     5.6532    -0.9388 N.am    
  17 O17            9.2340     5.5285    -3.1426 O.2     
  18 C18           10.7330     6.4014    -1.0777 C.3     
  19 C19           10.9688     7.2390     0.1807 C.3     
  20 C20           12.2338     8.0982     0.2307 C.3     
  21 C21           10.8666     8.7597     0.0466 C.3     
  22 C22           11.8941     5.4226    -1.2639 C.3     
  23 H23           -0.9592     1.9054     0.0170 H       
  24 H24           -0.9258    -0.5567     0.0083 H       
  25 H25            1.2231    -1.7588    -0.0184 H       
  26 H26            3.3386    -0.4987    -0.0324 H       
  27 H27            1.1563     3.1654     0.0069 H       
  28 H28            3.5335     3.1300     0.4968 H       
  29 H29            4.4443     1.6008     0.4812 H       
  30 H30            7.5813     4.5075     0.2488 H       
  31 H31            7.1926     4.3205    -4.0250 H       
  32 H32            5.0860     3.0543    -3.7023 H       
  33 H33            9.1388     5.4400    -0.0566 H       
  34 H34           10.6692     7.0586    -1.9449 H       
  35 H35           10.6271     6.7917     1.1141 H       
  36 H36           12.7241     8.2164     1.1970 H       
  37 H37           12.8980     8.0667    -0.6330 H       
  38 H38           10.6313     9.1634    -0.9382 H       
  39 H39           10.4573     9.3131     0.8918 H       
  40 H40           11.7261     4.8258    -2.1604 H       
  41 H41           12.8255     5.9792    -1.3672 H       
  42 H42           11.9579     4.7654    -0.3966 H       
@<TRIPOS>BOND
   1    1    2 ar
   2    1    6 ar
   3    1   23 1
   4    2    3 ar
   5    2   24 1
   6    3    4 ar
   7    3   25 1
   8    4    5 ar
   9    4   26 1
  10    5    6 ar
  11    5    7 1
  12    6   27 1
  13    7    8 1
  14    7   28 1
  15    7   29 1
  16    8    9 1
  17    9   10 ar
  18    9   14 ar
  19   10   11 ar
  20   11   12 ar
  21   11   30 1
  22   12   13 ar
  23   12   15 1
  24   13   14 ar
  25   13   31 1
  26   14   32 1
  27   15   16 am
  28   15   17 2
  29   16   18 1
  30   16   33 1
  31   18   19 1
  32   18   22 1
  33   18   34 1
  34   19   20 1
  35   19   21 1
  36   19   35 1
  37   20   21 1
  38   20   36 1
  39   20   37 1
  40   21   38 1
  41   21   39 1
  42   22   40 1
  43   22   41 1
  44   22   42 1

#	End of record

