#	Name: ASD01811955
#	Creating user name:	WinNT
#	Creation time:	15. 06. 2019 19:27

#	Modifying user name:	WinNT
#	Modification time:	15. 06. 2019 19:27

#	Program:	/corina/corina34_cracker 3.40 0067  02.08.2006

@<TRIPOS>MOLECULE
ASD01811955
  48   50    0    0    0
SMALL
NO_CHARGES


@<TRIPOS>ATOM
   1 O1            -0.0818     1.3358    -0.3075 O.3     
   2 O2             0.3777   -10.5949     0.2466 O.2     
   3 O3            -0.0641    -6.8122    -0.3269 O.2     
   4 N4             0.0317    -4.1913    -0.3123 N.pl3   
   5 N5             1.8784    -8.6218    -0.1653 N.pl3   
   6 N6             2.1051    -7.2395    -0.1426 N.am    
   7 C7             3.8002   -11.8004    -0.0405 C.ar    
   8 C8             3.5194   -13.1801     0.0657 C.ar    
   9 C9             2.6868   -10.8390     0.0209 C.2     
  10 C10            5.1166   -11.3716    -0.2066 C.ar    
  11 C11            2.1430   -13.6310     0.2329 C.2     
  12 C12            1.3267   -11.3620     0.1909 C.2     
  13 C13            4.5744   -14.1006     0.0079 C.ar    
  14 C14            1.1184   -12.7546     0.2895 C.2     
  15 C15            2.9175    -9.4771    -0.0786 C.2     
  16 C16            0.0030    -2.7923    -0.3113 C.ar    
  17 C17            6.1318   -12.3008    -0.2655 C.ar    
  18 C18            1.3106    -4.8978    -0.2047 C.3     
  19 C19            5.8558   -13.6571    -0.1495 C.ar    
  20 C20           -1.2090    -2.1222    -0.4132 C.ar    
  21 C21            1.1859    -2.0732    -0.2027 C.ar    
  22 C22           -0.0539    -0.0239    -0.3085 C.ar    
  23 C23            1.0667    -6.3847    -0.2292 C.2     
  24 C24           -1.2365    -0.7414    -0.4117 C.ar    
  25 C25            1.1566    -0.6924    -0.2014 C.ar    
  26 C26            1.1732     2.0104    -0.1981 C.3     
  27 C27            0.9423     3.5228    -0.2142 C.3     
  28 H28            5.3387   -10.3179    -0.2889 H       
  29 H29            1.9392   -14.6885     0.3132 H       
  30 H30            4.3742   -15.1588     0.0882 H       
  31 H31            0.1129   -13.1285     0.4141 H       
  32 H32            3.9294    -9.0999    -0.0868 H       
  33 H33            1.9503    -4.6207    -1.0426 H       
  34 H34            1.7988    -4.6251     0.7309 H       
  35 H35            7.1522   -11.9713    -0.3941 H       
  36 H36            6.6650   -14.3710    -0.1934 H       
  37 H37           -0.7952    -4.6934    -0.3842 H       
  38 H38            0.9740    -8.9637    -0.2434 H       
  39 H39           -2.1298    -2.6807    -0.4940 H       
  40 H40            2.1286    -2.5935    -0.1189 H       
  41 H41           -2.1790    -0.2201    -0.4914 H       
  42 H42            2.0766    -0.1330    -0.1169 H       
  43 H43            3.0095    -6.8976    -0.0644 H       
  44 H44            1.6579     1.7267     0.7360 H       
  45 H45            1.8101     1.7311    -1.0374 H       
  46 H46            0.4576     3.8064    -1.1484 H       
  47 H47            0.3054     3.8020     0.6251 H       
  48 H48            1.8996     4.0373    -0.1308 H       
@<TRIPOS>BOND
   1    1   22 1
   2    1   26 1
   3    2   12 2
   4    3   23 2
   5    4   16 1
   6    4   18 1
   7    4   37 1
   8    5    6 1
   9    5   15 1
  10    5   38 1
  11    6   23 am
  12    6   43 1
  13    7    8 ar
  14    7    9 1
  15    7   10 ar
  16    8   11 1
  17    8   13 ar
  18    9   12 1
  19    9   15 2
  20   10   17 ar
  21   10   28 1
  22   11   14 2
  23   11   29 1
  24   12   14 1
  25   13   19 ar
  26   13   30 1
  27   14   31 1
  28   15   32 1
  29   16   20 ar
  30   16   21 ar
  31   17   19 ar
  32   17   35 1
  33   18   23 1
  34   18   33 1
  35   18   34 1
  36   19   36 1
  37   20   24 ar
  38   20   39 1
  39   21   25 ar
  40   21   40 1
  41   22   24 ar
  42   22   25 ar
  43   24   41 1
  44   25   42 1
  45   26   27 1
  46   26   44 1
  47   26   45 1
  48   27   46 1
  49   27   47 1
  50   27   48 1

#	End of record

