#	Name: ASD04590530
#	Creating user name:	WinNT
#	Creation time:	15. 06. 2019 20:51

#	Modifying user name:	WinNT
#	Modification time:	15. 06. 2019 20:51

#	Program:	/corina/corina34_cracker 3.40 0067  02.08.2006

@<TRIPOS>MOLECULE
ASD04590530
  58   63    0    0    0
SMALL
NO_CHARGES


@<TRIPOS>ATOM
   1 C1            -0.0167     1.3834     0.0096 C.ar    
   2 C2             0.0021    -0.0041     0.0020 C.ar    
   3 C3            -2.3904    -0.0461     0.0246 C.ar    
   4 C4            -2.4092     1.3597     0.0439 C.ar    
   5 C5            -1.2148     2.0663     0.0305 C.ar    
   6 N6            -3.6798    -0.4642     0.0445 N.2     
   7 C7            -4.4793     0.5746     0.0744 C.2     
   8 N8            -3.7408     1.7275     0.0753 N.pl3   
   9 C9            -5.9552     0.5106     0.1027 C.2     
  10 C10           -6.7363    -0.6681     0.1028 C.2     
  11 C11           -8.0403    -0.2998     0.1342 C.2     
  12 N12           -8.0893     1.0582     0.1534 N.pl3   
  13 N13           -6.7753     1.5426     0.1382 N.2     
  14 N14           -6.2482    -1.9848     0.0746 N.am    
  15 C15           -7.1083    -3.0225     0.0782 C.2     
  16 O16           -8.3072    -2.8187     0.1060 O.2     
  17 C17           -1.1632    -0.7168     0.0093 C.ar    
  18 C18           -6.5966    -4.4030     0.0486 C.2     
  19 C19            1.2811     2.1494     0.0014 C.3     
  20 N20            1.6895     2.4057    -1.3862 N.3     
  21 C21            2.8166     3.3482    -1.4381 C.3     
  22 C22            3.2476     3.5403    -2.8946 C.3     
  23 O23            2.1285     3.9918    -3.6620 O.3     
  24 C24            1.0128     3.0975    -3.6342 C.3     
  25 C25            0.5592     2.9009    -2.1852 C.3     
  26 C26           -5.2937    -4.8321     0.0160 C.2     
  27 O27           -5.3329    -6.1665    -0.0017 O.3     
  28 N28           -6.4535    -6.6132     0.0150 N.2     
  29 C29           -7.3593    -5.6690     0.0531 C.2     
  30 C30           -8.8327    -5.8338     0.0830 C.ar    
  31 C31           -9.4335    -6.8798    -0.6157 C.ar    
  32 C32          -10.8045    -7.0292    -0.5851 C.ar    
  33 C33          -11.5843    -6.1415     0.1388 C.ar    
  34 C34          -10.9914    -5.1000     0.8346 C.ar    
  35 C35           -9.6206    -4.9466     0.8146 C.ar    
  36 F36          -12.9267    -6.2916     0.1660 F       
  37 H37            0.9476    -0.5257    -0.0102 H       
  38 H38           -1.2234     3.1462     0.0367 H       
  39 H39           -4.0876     2.6331     0.0946 H       
  40 H40           -8.8895    -0.9670     0.1422 H       
  41 H41           -8.8946     1.5983     0.1770 H       
  42 H42           -5.2922    -2.1473     0.0524 H       
  43 H43           -1.1370    -1.7965     0.0029 H       
  44 H44            1.1466     3.0977     0.5216 H       
  45 H45            2.0512     1.5649     0.5047 H       
  46 H46            2.5091     4.3067    -1.0201 H       
  47 H47            3.6511     2.9497    -0.8611 H       
  48 H48            4.0453     4.2815    -2.9433 H       
  49 H49            3.6057     2.5923    -3.2962 H       
  50 H50            0.1942     3.5185    -4.2179 H       
  51 H51            1.3059     2.1367    -4.0574 H       
  52 H52           -0.2542     2.1760    -2.1536 H       
  53 H53            0.2156     3.8523    -1.7792 H       
  54 H54           -4.4096    -4.2119     0.0063 H       
  55 H55           -8.8265    -7.5719    -1.1805 H       
  56 H56          -11.2708    -7.8390    -1.1265 H       
  57 H57          -11.6031    -4.4101     1.3969 H       
  58 H58           -9.1594    -4.1346     1.3572 H       
@<TRIPOS>BOND
   1    1    2 ar
   2    1   19 1
   3    1    5 ar
   4    2   17 ar
   5    2   37 1
   6    3    4 ar
   7    3    6 1
   8    3   17 ar
   9    4    5 ar
  10    4    8 1
  11    5   38 1
  12    6    7 2
  13    7    8 1
  14    7    9 1
  15    8   39 1
  16    9   10 1
  17    9   13 2
  18   10   11 2
  19   10   14 1
  20   11   12 1
  21   11   40 1
  22   12   13 1
  23   12   41 1
  24   14   15 am
  25   14   42 1
  26   15   16 2
  27   15   18 1
  28   17   43 1
  29   18   26 2
  30   18   29 1
  31   19   20 1
  32   19   44 1
  33   19   45 1
  34   20   21 1
  35   20   25 1
  36   21   22 1
  37   21   46 1
  38   21   47 1
  39   22   23 1
  40   22   48 1
  41   22   49 1
  42   23   24 1
  43   24   25 1
  44   24   50 1
  45   24   51 1
  46   25   52 1
  47   25   53 1
  48   26   27 1
  49   26   54 1
  50   27   28 1
  51   28   29 2
  52   29   30 1
  53   30   31 ar
  54   30   35 ar
  55   31   32 ar
  56   31   55 1
  57   32   33 ar
  58   32   56 1
  59   33   34 ar
  60   33   36 1
  61   34   35 ar
  62   34   57 1
  63   35   58 1

#	End of record

