#	Name: ASD01120204
#	Creating user name:	WinNT
#	Creation time:	15. 06. 2019 18:59

#	Modifying user name:	WinNT
#	Modification time:	15. 06. 2019 18:59

#	Program:	/corina/corina34_cracker 3.40 0067  02.08.2006

@<TRIPOS>MOLECULE
ASD01120204
  29   31    0    0    0
SMALL
NO_CHARGES


@<TRIPOS>ATOM
   1 C1            -0.0167     1.3828     0.0096 C.ar    
   2 C2             0.0021    -0.0041     0.0020 C.ar    
   3 C3            -1.1785    -0.7198     0.0090 C.ar    
   4 C4            -2.3914    -0.0514     0.0242 C.ar    
   5 C5            -2.4156     1.3515     0.0324 C.ar    
   6 C6            -1.2159     2.0636     0.0305 C.ar    
   7 O7            -3.6828    -0.4556     0.0344 O.3     
   8 C8            -4.4648     0.6381     0.0482 C.2     
   9 N9            -3.7266     1.7186     0.0472 N.2     
  10 Cl10           1.4775     2.2664     0.0001 Cl      
  11 N11           -5.8411     0.6234     0.0614 N.am    
  12 S12           -6.6843     2.0485     0.0777 S.o2    
  13 O13           -8.0618     1.7001     0.0544 O.2     
  14 O14           -6.1020     2.8477     1.0983 O.2     
  15 C15           -6.3526     2.8683    -1.4462 C.ar    
  16 C16           -7.1615     2.6403    -2.5450 C.ar    
  17 C17           -6.9007     3.2847    -3.7413 C.ar    
  18 C18           -5.8322     4.1561    -3.8387 C.ar    
  19 C19           -5.0234     4.3840    -2.7413 C.ar    
  20 C20           -5.2865     3.7445    -1.5428 C.ar    
  21 Cl21          -8.5031     1.5454    -2.4231 Cl      
  22 Cl22          -4.2709     4.0314    -0.1644 Cl      
  23 H23            0.9466    -0.5276    -0.0098 H       
  24 H24           -1.1563    -1.7995     0.0023 H       
  25 H25           -1.2263     3.1436     0.0371 H       
  26 H26           -6.3171    -0.2218     0.0612 H       
  27 H27           -7.5320     3.1064    -4.5993 H       
  28 H28           -5.6291     4.6588    -4.7727 H       
  29 H29           -4.1882     5.0644    -2.8181 H       
@<TRIPOS>BOND
   1    1    2 ar
   2    1   10 1
   3    1    6 ar
   4    2    3 ar
   5    2   23 1
   6    3    4 ar
   7    3   24 1
   8    4    5 ar
   9    4    7 1
  10    5    6 ar
  11    5    9 1
  12    6   25 1
  13    7    8 1
  14    8    9 2
  15    8   11 1
  16   11   12 am
  17   11   26 1
  18   12   13 2
  19   12   14 2
  20   12   15 1
  21   15   16 ar
  22   15   20 ar
  23   16   17 ar
  24   16   21 1
  25   17   18 ar
  26   17   27 1
  27   18   19 ar
  28   18   28 1
  29   19   20 ar
  30   19   29 1
  31   20   22 1

#	End of record

