#	Name: ASD01811161
#	Creating user name:	WinNT
#	Creation time:	15. 06. 2019 19:26

#	Modifying user name:	WinNT
#	Modification time:	15. 06. 2019 19:26

#	Program:	/corina/corina34_cracker 3.40 0067  02.08.2006

@<TRIPOS>MOLECULE
ASD01811161
  62   65    0    0    0
SMALL
NO_CHARGES


@<TRIPOS>ATOM
   1 C1            -0.2501     1.4337    -0.5501 C.2     
   2 C2            -0.1195    -0.0117    -0.2673 C.ar    
   3 C3             1.1465    -0.5896    -0.1452 C.ar    
   4 C4             1.2702    -1.9391     0.1183 C.ar    
   5 C5             0.1450    -2.7266     0.2634 C.ar    
   6 C6            -1.1267    -2.1617     0.1438 C.ar    
   7 C7            -1.2586    -0.7992    -0.1164 C.ar    
   8 O8             0.5654     2.2165    -0.1033 O.2     
   9 N9            -1.2703     1.8826    -1.3078 N.am    
  10 N10           -1.3910     3.2180    -1.5690 N.3     
  11 C11            0.2897    -4.1988     0.5509 C.3     
  12 C12            0.1342    -4.9901    -0.7493 C.3     
  13 C13            2.3800     0.2619    -0.3020 C.3     
  14 C14            3.2088     0.3889     0.9871 C.3     
  15 C15            4.4599     0.2654     0.1015 C.3     
  16 C16            3.5771    -0.4927    -0.9039 C.3     
  17 C17           -2.3303    -3.0063     0.2989 C.2     
  18 O18           -2.4425    -3.7324     1.2672 O.2     
  19 N19           -3.3029    -2.9712    -0.6334 N.am    
  20 C20           -4.5577    -3.7092    -0.4344 C.3     
  21 C21           -4.7989    -4.6088    -1.6507 C.3     
  22 C22           -4.7645    -3.7593    -2.9232 C.3     
  23 C23           -3.3861    -3.1103    -3.0682 C.3     
  24 C24           -3.1310    -2.1893    -1.8654 C.3     
  25 C25           -5.0352    -4.6354    -4.1192 C.ar    
  26 C26           -6.1249    -4.3748    -4.9311 C.ar    
  27 C27           -6.3786    -5.1727    -6.0274 C.ar    
  28 C28           -5.5326    -6.2450    -6.3172 C.ar    
  29 C29           -4.4345    -6.5019    -5.4938 C.ar    
  30 C30           -4.1898    -5.6931    -4.4035 C.ar    
  31 C31           -5.7901    -7.0777    -7.4533 C.1     
  32 N32           -5.9944    -7.7383    -8.3546 N.1     
  33 H33            2.2512    -2.3811     0.2110 H       
  34 H34           -2.2397    -0.3565    -0.2054 H       
  35 H35           -1.9189     1.2575    -1.6676 H       
  36 H36           -2.1982     3.4021    -2.1457 H       
  37 H37           -1.4283     3.7518    -0.7136 H       
  38 H38            1.2742    -4.3907     0.9775 H       
  39 H39           -0.4795    -4.5081     1.2586 H       
  40 H40            0.2388    -6.0549    -0.5414 H       
  41 H41           -0.8503    -4.7982    -1.1759 H       
  42 H42            0.9034    -4.6808    -1.4570 H       
  43 H43            2.1761     1.2171    -0.7859 H       
  44 H44            3.1127     1.3593     1.4741 H       
  45 H45            3.0767    -0.4461     1.6752 H       
  46 H46            4.8259     1.2214    -0.2729 H       
  47 H47            5.2469    -0.3477     0.5406 H       
  48 H48            3.5457    -1.5687    -0.7329 H       
  49 H49            3.7783    -0.2341    -1.9435 H       
  50 H50           -4.4827    -4.3219     0.4640 H       
  51 H51           -5.3833    -3.0051    -0.3311 H       
  52 H52           -4.0204    -5.3701    -1.7003 H       
  53 H53           -5.7731    -5.0893    -1.5603 H       
  54 H54           -5.5268    -2.9827    -2.8622 H       
  55 H55           -2.6209    -3.8858    -3.1045 H       
  56 H56           -3.3546    -2.5243    -3.9868 H       
  57 H57           -3.8427    -1.3638    -1.8765 H       
  58 H58           -2.1145    -1.7988    -1.9115 H       
  59 H59           -6.7785    -3.5450    -4.7057 H       
  60 H60           -7.2299    -4.9686    -6.6599 H       
  61 H61           -3.7761    -7.3297    -5.7123 H       
  62 H62           -3.3385    -5.8882    -3.7682 H       
@<TRIPOS>BOND
   1    1    2 1
   2    1    8 2
   3    1    9 am
   4    2    3 ar
   5    2    7 ar
   6    3    4 ar
   7    3   13 1
   8    4    5 ar
   9    4   33 1
  10    5    6 ar
  11    5   11 1
  12    6    7 ar
  13    6   17 1
  14    7   34 1
  15    9   10 1
  16    9   35 1
  17   10   36 1
  18   10   37 1
  19   11   12 1
  20   11   38 1
  21   11   39 1
  22   12   40 1
  23   12   41 1
  24   12   42 1
  25   13   14 1
  26   13   16 1
  27   13   43 1
  28   14   15 1
  29   14   44 1
  30   14   45 1
  31   15   16 1
  32   15   46 1
  33   15   47 1
  34   16   48 1
  35   16   49 1
  36   17   18 2
  37   17   19 am
  38   19   20 1
  39   19   24 1
  40   20   21 1
  41   20   50 1
  42   20   51 1
  43   21   22 1
  44   21   52 1
  45   21   53 1
  46   22   23 1
  47   22   25 1
  48   22   54 1
  49   23   24 1
  50   23   55 1
  51   23   56 1
  52   24   57 1
  53   24   58 1
  54   25   26 ar
  55   25   30 ar
  56   26   27 ar
  57   26   59 1
  58   27   28 ar
  59   27   60 1
  60   28   29 ar
  61   28   31 1
  62   29   30 ar
  63   29   61 1
  64   30   62 1
  65   31   32 3

#	End of record

