#	Name: ASD01411061
#	Creating user name:	WinNT
#	Creation time:	15. 06. 2019 19:19

#	Modifying user name:	WinNT
#	Modification time:	15. 06. 2019 19:19

#	Program:	/corina/corina34_cracker 3.40 0067  02.08.2006

@<TRIPOS>MOLECULE
ASD01411061
  61   65    0    0    0
SMALL
NO_CHARGES


@<TRIPOS>ATOM
   1 C1             1.2762     1.3983    -1.2000 C.ar    
   2 C2             1.2928     0.0174    -1.2046 C.ar    
   3 C3             1.1769     2.0866     0.0020 C.ar    
   4 C4             1.2102    -0.6808    -0.0139 C.ar    
   5 C5             1.0945     1.3842     1.1963 C.ar    
   6 N6             1.1604     3.4878     0.0092 N.am    
   7 C7             1.1106     0.0017     1.1858 C.ar    
   8 C8            -0.0215     4.1359    -0.0735 C.2     
   9 C9             2.3190     4.1585     0.1038 C.2     
  10 Cl10           1.0065    -0.8784     2.6785 Cl      
  11 C11           -0.0133     5.6066    -0.0641 C.ar    
  12 O12           -1.0666     3.5188    -0.1543 O.2     
  13 N13            2.3840     5.5012     0.1174 N.am    
  14 O14            3.3538     3.5249     0.1807 O.2     
  15 C15            1.2284     6.2647     0.0309 C.ar    
  16 C16           -1.1930     6.3460    -0.1466 C.ar    
  17 C17            1.2706     7.6467     0.0419 C.ar    
  18 C18           -1.1390     7.7112    -0.1349 C.ar    
  19 C19            0.0865     8.3698    -0.0410 C.ar    
  20 N20            0.1242     9.7599    -0.0308 N.pl3   
  21 C21           -1.1207    10.5272    -0.1185 C.3     
  22 C22            3.6860     6.1641     0.2241 C.3     
  23 C23           -0.9177    11.9061     0.5154 C.3     
  24 C24           -2.2021    12.7247     0.3666 C.3     
  25 N25           -2.5327    12.8646    -1.0573 N.3     
  26 C26           -2.7785    11.5559    -1.6764 C.3     
  27 C27           -1.5113    10.7025    -1.5886 C.3     
  28 C28           -3.8390    14.0746    -2.7109 C.ar    
  29 C29           -4.6299    13.2699    -3.5095 C.ar    
  30 C30           -4.7787    13.5616    -4.8525 C.ar    
  31 C31           -4.1368    14.6583    -5.3968 C.ar    
  32 C32           -3.3466    15.4636    -4.5980 C.ar    
  33 C33           -3.1968    15.1710    -3.2553 C.ar    
  34 C34           -3.6818    13.7602    -1.2455 C.3     
  35 H35            1.3450     1.9426    -2.1303 H       
  36 H36            1.3700    -0.5179    -2.1394 H       
  37 H37            1.2229    -1.7607    -0.0202 H       
  38 H38            1.0172     1.9168     2.1326 H       
  39 H39           -2.1452     5.8416    -0.2198 H       
  40 H40            2.2175     8.1610     0.1148 H       
  41 H41           -2.0521     8.2844    -0.1988 H       
  42 H42            0.9749    10.2216     0.0344 H       
  43 H43           -1.9134     9.9968     0.4092 H       
  44 H44            4.4730     5.4122     0.2812 H       
  45 H45            3.8467     6.7924    -0.6520 H       
  46 H46            3.7071     6.7811     1.1224 H       
  47 H47           -0.6811    11.7892     1.5730 H       
  48 H48           -0.0982    12.4204     0.0133 H       
  49 H49           -3.0181    12.2168     0.8807 H       
  50 H50           -2.0562    13.7122     0.8043 H       
  51 H51           -3.5918    11.0535    -1.1528 H       
  52 H52           -3.0512    11.6946    -2.7226 H       
  53 H53           -0.7011    11.1978    -2.1238 H       
  54 H54           -1.6988     9.7256    -2.0343 H       
  55 H55           -5.1313    12.4131    -3.0843 H       
  56 H56           -5.3960    12.9325    -5.4766 H       
  57 H57           -4.2525    14.8858    -6.4462 H       
  58 H58           -2.8446    16.3200    -5.0234 H       
  59 H59           -2.5788    15.7997    -2.6314 H       
  60 H60           -4.5857    13.2733    -0.8793 H       
  61 H61           -3.5169    14.6842    -0.6913 H       
@<TRIPOS>BOND
   1    1    2 ar
   2    1    3 ar
   3    1   35 1
   4    2    4 ar
   5    2   36 1
   6    3    5 ar
   7    3    6 1
   8    4    7 ar
   9    4   37 1
  10    5    7 ar
  11    5   38 1
  12    6    9 am
  13    6    8 am
  14    7   10 1
  15    8   11 1
  16    8   12 2
  17    9   13 am
  18    9   14 2
  19   11   15 ar
  20   11   16 ar
  21   13   22 1
  22   13   15 1
  23   15   17 ar
  24   16   18 ar
  25   16   39 1
  26   17   19 ar
  27   17   40 1
  28   18   19 ar
  29   18   41 1
  30   19   20 1
  31   20   21 1
  32   20   42 1
  33   21   23 1
  34   21   27 1
  35   21   43 1
  36   22   44 1
  37   22   45 1
  38   22   46 1
  39   23   24 1
  40   23   47 1
  41   23   48 1
  42   24   25 1
  43   24   49 1
  44   24   50 1
  45   25   26 1
  46   25   34 1
  47   26   27 1
  48   26   51 1
  49   26   52 1
  50   27   53 1
  51   27   54 1
  52   28   29 ar
  53   28   33 ar
  54   28   34 1
  55   29   30 ar
  56   29   55 1
  57   30   31 ar
  58   30   56 1
  59   31   32 ar
  60   31   57 1
  61   32   33 ar
  62   32   58 1
  63   33   59 1
  64   34   60 1
  65   34   61 1

#	End of record

