#	Name: ASD06020151
#	Creating user name:	WinNT
#	Creation time:	15. 06. 2019 21:04

#	Modifying user name:	WinNT
#	Modification time:	15. 06. 2019 21:04

#	Program:	/corina/corina34_cracker 3.40 0067  02.08.2006

@<TRIPOS>MOLECULE
ASD06020151
  18   18    0    0    0
SMALL
NO_CHARGES


@<TRIPOS>ATOM
   1 C1            -0.0179     1.4703     0.0101 C.2     
   2 C2             0.0021    -0.0041     0.0020 C.ar    
   3 C3             0.0232    -0.7136     1.2073 C.ar    
   4 C4             0.0418    -2.0932     1.1916 C.ar    
   5 C5             0.0398    -2.7763    -0.0129 C.ar    
   6 C6             0.0190    -2.0832    -1.2098 C.ar    
   7 C7            -0.0057    -0.7010    -1.2114 C.ar    
   8 O8             1.0259     2.0921     0.0035 O.2     
   9 O9            -1.1939     2.1281     0.0193 O.3     
  10 I10            0.0690    -4.8711    -0.0226 I       
  11 F11           -0.0317    -0.0250    -2.3808 F       
  12 Cl12           0.0264     0.1395     2.7192 Cl      
  13 C13           -1.1375     3.5790     0.0269 C.3     
  14 H14            0.0585    -2.6419     2.1217 H       
  15 H15            0.0175    -2.6231    -2.1451 H       
  16 H16           -2.1503     3.9819     0.0339 H       
  17 H17           -0.6058     3.9173     0.9162 H       
  18 H18           -0.6142     3.9270    -0.8637 H       
@<TRIPOS>BOND
   1    1    2 1
   2    1    8 2
   3    1    9 1
   4    2    3 ar
   5    2    7 ar
   6    3    4 ar
   7    3   12 1
   8    4    5 ar
   9    4   14 1
  10    5    6 ar
  11    5   10 1
  12    6    7 ar
  13    6   15 1
  14    7   11 1
  15    9   13 1
  16   13   16 1
  17   13   17 1
  18   13   18 1

#	End of record

