#	Name: ASD07301280
#	Creating user name:	WinNT
#	Creation time:	15. 06. 2019 21:11

#	Modifying user name:	WinNT
#	Modification time:	15. 06. 2019 21:11

#	Program:	/corina/corina34_cracker 3.40 0067  02.08.2006

@<TRIPOS>MOLECULE
ASD07301280
  39   40    0    0    0
SMALL
NO_CHARGES


@<TRIPOS>ATOM
   1 C1            -0.0169     1.4658     0.0590 C.2     
   2 C2             0.0021    -0.0040     0.0009 C.2     
   3 C3             1.2714    -0.6339    -0.0639 C.2     
   4 C4             2.3707     0.1577    -0.0678 C.2     
   5 N5             2.2552     1.5068    -0.0114 N.pl3   
   6 N6             1.1284     2.1148     0.0481 N.2     
   7 O7            -1.0315    -0.6546     0.0087 O.2     
   8 C8            -1.2980     2.2004     0.1222 C.2     
   9 C9            -1.3008     3.6120     0.1775 C.2     
  10 C10           -2.4727     4.2839     0.2353 C.2     
  11 O11           -2.3515     1.5884     0.1265 O.2     
  12 N12           -2.4754     5.6481     0.2888 N.pl3   
  13 C13           -1.2086     6.3839     0.2836 C.3     
  14 C14           -3.7451     6.3762     0.3514 C.3     
  15 C15            3.4248     2.2744    -0.0184 C.ar    
  16 C16            4.6645     1.6534     0.0713 C.ar    
  17 C17            5.8177     2.4115     0.0643 C.ar    
  18 C18            5.7394     3.7938    -0.0323 C.ar    
  19 C19            4.5016     4.4149    -0.1219 C.ar    
  20 C20            3.3475     3.6580    -0.1208 C.ar    
  21 O21            6.8756     4.5396    -0.0386 O.3     
  22 C22            6.7209     5.9565    -0.1405 C.3     
  23 F23            6.0595     6.2689    -1.3331 F       
  24 F24            5.9711     6.4230     0.9446 F       
  25 H25            1.3586    -1.7094    -0.1083 H       
  26 H26            3.3514    -0.2920    -0.1161 H       
  27 H27           -0.3669     4.1544     0.1737 H       
  28 H28           -3.4065     3.7414     0.2392 H       
  29 H29           -0.9220     6.6066    -0.7442 H       
  30 H30           -1.3270     7.3151     0.8376 H       
  31 H31           -0.4343     5.7775     0.7534 H       
  32 H32           -4.2921     6.0765     1.2454 H       
  33 H33           -3.5482     7.4476     0.3881 H       
  34 H34           -4.3399     6.1461    -0.5326 H       
  35 H35            4.7256     0.5778     0.1468 H       
  36 H36            6.7814     1.9289     0.1344 H       
  37 H37            4.4415     5.4907    -0.1967 H       
  38 H38            2.3845     4.1412    -0.1951 H       
  39 H39            7.7024     6.4305    -0.1345 H       
@<TRIPOS>BOND
   1    1    2 1
   2    1    6 2
   3    1    8 1
   4    2    3 1
   5    2    7 2
   6    3    4 2
   7    3   25 1
   8    4    5 1
   9    4   26 1
  10    5    6 1
  11    5   15 1
  12    8    9 1
  13    8   11 2
  14    9   10 2
  15    9   27 1
  16   10   12 1
  17   10   28 1
  18   12   13 1
  19   12   14 1
  20   13   29 1
  21   13   30 1
  22   13   31 1
  23   14   32 1
  24   14   33 1
  25   14   34 1
  26   15   16 ar
  27   15   20 ar
  28   16   17 ar
  29   16   35 1
  30   17   18 ar
  31   17   36 1
  32   18   19 ar
  33   18   21 1
  34   19   20 ar
  35   19   37 1
  36   20   38 1
  37   21   22 1
  38   22   23 1
  39   22   24 1
  40   22   39 1

#	End of record

