#	Name: ASD01410820
#	Creating user name:	WinNT
#	Creation time:	15. 06. 2019 19:18

#	Modifying user name:	WinNT
#	Modification time:	15. 06. 2019 19:18

#	Program:	/corina/corina34_cracker 3.40 0067  02.08.2006

@<TRIPOS>MOLECULE
ASD01410820
  92   92    0    0    0
SMALL
NO_CHARGES


@<TRIPOS>ATOM
   1 C1            -0.6190     1.0197    -0.5702 C.3     
   2 C2            -0.5890    -0.5166    -0.7129 C.3     
   3 C3            -1.4758     0.0256     1.4423 C.3     
   4 C4            -1.7030     1.2467     0.5165 C.3     
   5 C5             0.8513    -0.9926    -0.9124 C.3     
   6 N6             1.3392    -0.5413    -2.2225 N.3     
   7 C7            -2.7343    -0.2940     2.2071 C.2     
   8 O8            -3.4544    -1.1911     1.8376 O.2     
   9 O9            -3.0552     0.4178     3.2989 O.3     
  10 C10           -4.2817     0.0544     3.9858 C.3     
  11 C11            0.9532    -1.4836    -3.2812 C.3     
  12 C12            0.5139    -0.7159    -4.5013 C.2     
  13 C13            2.1499    -2.3676    -3.6383 C.3     
  14 C14            2.6926    -3.0282    -2.3695 C.3     
  15 C15            1.7085    -3.4484    -4.6272 C.3     
  16 C16            3.2452    -1.5101    -4.2753 C.3     
  17 O17            0.1142    -1.3743    -5.6006 O.3     
  18 O18            0.5216     0.4923    -4.4901 O.2     
  19 C19           -0.2952    -0.5702    -6.7383 C.3     
  20 C20            0.8732     0.3092    -7.1880 C.3     
  21 C21           -0.7139    -1.4889    -7.8878 C.3     
  22 C22           -1.4761     0.3162    -6.3378 C.3     
  23 N23           -1.1346    -1.0812     0.5301 N.am    
  24 O24           -1.7056    -2.7908     2.0117 O.3     
  25 C25           -1.8588    -4.2192     2.2225 C.3     
  26 C26           -0.5162    -4.9157     1.9917 C.3     
  27 C27           -2.3266    -4.4758     3.6564 C.3     
  28 C28           -2.8951    -4.7712     1.2415 C.3     
  29 C29           -1.2968    -2.3933     0.7920 C.2     
  30 O30           -1.0742    -3.2175    -0.0726 O.2     
  31 Si31           0.9960     3.0153    -0.6575 Si      
  32 C32            2.6672     3.5284    -0.0136 C.3     
  33 C33           -0.2990     4.2042    -0.0407 C.3     
  34 C34            1.0166     3.0311    -2.5203 C.3     
  35 C35            2.6503     3.5155     1.5163 C.3     
  36 C36            3.7307     2.5521    -0.5201 C.3     
  37 C37            2.9931     4.9392    -0.5081 C.3     
  38 O38            0.6486     1.5115    -0.1303 O.3     
  39 H39           -0.9078     1.4888    -1.5107 H       
  40 H40           -1.2011    -0.8221    -1.5615 H       
  41 H41           -0.6532     0.2194     2.1307 H       
  42 H42           -1.5301     2.1803     1.0517 H       
  43 H43           -2.7023     1.2267     0.0816 H       
  44 H44            1.4831    -0.5781    -0.1269 H       
  45 H45            0.8836    -2.0813    -0.8681 H       
  46 H46            1.0102     0.3899    -2.4296 H       
  47 H47           -5.1259     0.1654     3.3052 H       
  48 H48           -4.2180    -0.9813     4.3197 H       
  49 H49           -4.4221     0.7061     4.8481 H       
  50 H50            0.1320    -2.1084    -2.9299 H       
  51 H51            1.9167    -3.6505    -1.9235 H       
  52 H52            3.5540    -3.6466    -2.6218 H       
  53 H53            2.9937    -2.2581    -1.6592 H       
  54 H54            1.3219    -2.9777    -5.5312 H       
  55 H55            2.5610    -4.0781    -4.8816 H       
  56 H56            0.9281    -4.0592    -4.1734 H       
  57 H57            3.5597    -0.7401    -3.5708 H       
  58 H58            4.0978    -2.1398    -4.5297 H       
  59 H59            2.8586    -1.0394    -5.1793 H       
  60 H60            1.7146    -0.3223    -7.4733 H       
  61 H61            0.5660     0.9128    -8.0420 H       
  62 H62            1.1716     0.9637    -6.3690 H       
  63 H63           -1.5463    -2.1155    -7.5675 H       
  64 H64           -1.0212    -0.8853    -8.7419 H       
  65 H65            0.1274    -2.1205    -8.1732 H       
  66 H66           -1.1778     0.9707    -5.5188 H       
  67 H67           -1.7834     0.9198    -7.1918 H       
  68 H68           -2.3085    -0.3103    -6.0174 H       
  69 H69            0.2220    -4.5224     2.6906 H       
  70 H70           -0.6313    -5.9880     2.1499 H       
  71 H71           -0.1830    -4.7329     0.9701 H       
  72 H72           -3.2831    -3.9796     3.8209 H       
  73 H73           -2.4416    -5.5481     3.8147 H       
  74 H74           -1.5884    -4.0826     4.3553 H       
  75 H75           -2.5618    -4.5884     0.2199 H       
  76 H76           -3.0101    -5.8435     1.3997 H       
  77 H77           -3.8515    -4.2750     1.4059 H       
  78 H78           -0.0668     5.2092    -0.3930 H       
  79 H79           -1.2767     3.9039    -0.4174 H       
  80 H80           -0.3110     4.1950     1.0492 H       
  81 H81            1.7742     2.3355    -2.8812 H       
  82 H82            0.0388     2.7308    -2.8970 H       
  83 H83            1.2488     4.0361    -2.8726 H       
  84 H84            2.4181     2.5105     1.8686 H       
  85 H85            3.6280     3.8157     1.8930 H       
  86 H86            1.8926     4.2111     1.8771 H       
  87 H87            3.7427     2.5613    -1.6100 H       
  88 H88            4.7085     2.8523    -0.1434 H       
  89 H89            3.4985     1.5471    -0.1678 H       
  90 H90            2.2354     5.6348    -0.1472 H       
  91 H91            3.9709     5.2394    -0.1314 H       
  92 H92            3.0051     4.9484    -1.5980 H       
@<TRIPOS>BOND
   1    1    2 1
   2    1   38 1
   3    1    4 1
   4    1   39 1
   5    2    5 1
   6    2   23 1
   7    2   40 1
   8    3    4 1
   9    3    7 1
  10    3   23 1
  11    3   41 1
  12    4   42 1
  13    4   43 1
  14    5    6 1
  15    5   44 1
  16    5   45 1
  17    6   11 1
  18    6   46 1
  19    7    8 2
  20    7    9 1
  21    9   10 1
  22   10   47 1
  23   10   48 1
  24   10   49 1
  25   11   12 1
  26   11   13 1
  27   11   50 1
  28   12   17 1
  29   12   18 2
  30   13   14 1
  31   13   15 1
  32   13   16 1
  33   14   51 1
  34   14   52 1
  35   14   53 1
  36   15   54 1
  37   15   55 1
  38   15   56 1
  39   16   57 1
  40   16   58 1
  41   16   59 1
  42   17   19 1
  43   19   20 1
  44   19   21 1
  45   19   22 1
  46   20   60 1
  47   20   61 1
  48   20   62 1
  49   21   63 1
  50   21   64 1
  51   21   65 1
  52   22   66 1
  53   22   67 1
  54   22   68 1
  55   23   29 am
  56   24   25 1
  57   24   29 1
  58   25   26 1
  59   25   27 1
  60   25   28 1
  61   26   69 1
  62   26   70 1
  63   26   71 1
  64   27   72 1
  65   27   73 1
  66   27   74 1
  67   28   75 1
  68   28   76 1
  69   28   77 1
  70   29   30 2
  71   31   32 1
  72   31   33 1
  73   31   34 1
  74   31   38 1
  75   32   35 1
  76   32   36 1
  77   32   37 1
  78   33   78 1
  79   33   79 1
  80   33   80 1
  81   34   81 1
  82   34   82 1
  83   34   83 1
  84   35   84 1
  85   35   85 1
  86   35   86 1
  87   36   87 1
  88   36   88 1
  89   36   89 1
  90   37   90 1
  91   37   91 1
  92   37   92 1

#	End of record

