#	Name: ASD00731061
#	Creating user name:	WinNT
#	Creation time:	15. 06. 2019 18:37

#	Modifying user name:	WinNT
#	Modification time:	15. 06. 2019 18:37

#	Program:	/corina/corina34_cracker 3.40 0067  02.08.2006

@<TRIPOS>MOLECULE
ASD00731061
 299  299    0    0    0
SMALL
NO_CHARGES


@<TRIPOS>ATOM
   1 C1            -0.5739    -6.6578   -25.9895 C.2     
   2 O2            -0.5696    -7.8693   -26.0449 O.2     
   3 N3             1.0422    -6.7680   -27.7964 N.am    
   4 C4             0.2951    -5.8575   -26.9252 C.3     
   5 C5            -0.5836    -4.9410   -27.7789 C.3     
   6 C6            -3.3818    -5.9638   -23.7541 C.2     
   7 O7            -3.4967    -4.8269   -24.1603 O.2     
   8 N8            -1.3601    -6.0269   -25.0948 N.am    
   9 C9            -2.2094    -6.8047   -24.1892 C.3     
  10 C10           -1.3976    -7.2222   -22.9614 C.3     
  11 O11           -1.0212    -6.0593   -22.2212 O.3     
  12 C12           -5.9537    -6.1571   -21.1635 C.2     
  13 O13           -5.5474    -7.2074   -20.7133 O.2     
  14 N14           -4.3028    -6.4753   -22.9134 N.am    
  15 C15           -5.4426    -5.6579   -22.4903 C.3     
  16 C16           -6.5560    -5.7556   -23.5352 C.3     
  17 C17           -6.0433    -5.2299   -24.8775 C.3     
  18 O18           -6.9556    -7.1200   -23.6793 O.3     
  19 C19           -8.7782    -5.3428   -18.9904 C.2     
  20 O20           -9.1937    -4.4841   -19.7393 O.2     
  21 N21           -6.8624    -5.4363   -20.4770 N.am    
  22 C22           -7.4263    -5.9635   -19.2319 C.3     
  23 C23           -6.4944    -5.6253   -18.0665 C.3     
  24 C24           -5.1487    -6.3241   -18.2703 C.3     
  25 O25           -6.2935    -4.2115   -18.0120 O.3     
  26 C26          -11.1139    -5.2295   -16.1806 C.2     
  27 O27          -10.3638    -5.8527   -15.4596 O.2     
  28 N28           -9.5255    -5.7421   -17.9422 N.am    
  29 C29          -10.7891    -5.0639   -17.6428 C.3     
  30 C30          -11.9089    -5.6762   -18.4866 C.3     
  31 O31          -12.1088    -7.0367   -18.0978 O.3     
  32 C32          -14.0423    -4.7238   -14.0518 C.2     
  33 O33          -14.7680    -4.5221   -15.0025 O.2     
  34 N34          -12.2380    -4.6850   -15.6742 N.am    
  35 C35          -12.5538    -4.8460   -14.2527 C.3     
  36 C36          -11.8394    -3.7603   -13.4454 C.3     
  37 C37          -10.3261    -3.9603   -13.5490 C.3     
  38 C38           -9.6224    -2.8909   -12.7539 C.2     
  39 O39          -10.2654    -2.0545   -12.1647 O.2     
  40 O40           -8.2814    -2.8674   -12.7001 O.3     
  41 C41          -16.2957    -4.2741   -11.2088 C.2     
  42 O42          -15.3779    -4.0751   -10.4413 O.2     
  43 N43          -14.5672    -4.8387   -12.8158 N.am    
  44 C44          -16.0143    -4.7199   -12.6205 C.3     
  45 C45          -16.6754    -6.0773   -12.8681 C.3     
  46 C46          -16.2872    -6.5879   -14.2571 C.3     
  47 O47          -16.2356    -7.0090   -11.8779 O.3     
  48 C48          -19.2656    -4.1549    -9.0665 C.2     
  49 O49          -20.0525    -4.3968    -9.9571 O.2     
  50 N50          -17.5674    -4.0964   -10.7991 N.am    
  51 C51          -17.8469    -3.7701    -9.3985 C.3     
  52 C52          -17.6611    -2.2675    -9.1781 C.3     
  53 C53          -17.9961    -1.9198    -7.7262 C.3     
  54 C54          -16.9473    -2.5370    -6.7989 C.3     
  55 C55          -18.5921    -1.4956   -10.1152 C.3     
  56 C56          -21.3943    -3.9942    -6.0991 C.2     
  57 O57          -20.5559    -3.3926    -5.4617 O.2     
  58 N58          -19.6599    -4.2302    -7.7800 N.am    
  59 C59          -21.0533    -4.5484    -7.4583 C.3     
  60 C60          -21.2412    -6.0668    -7.4518 C.3     
  61 C61          -21.0162    -6.6147    -8.8625 C.3     
  62 C62          -21.2013    -8.1102    -8.8560 C.2     
  63 O63          -21.4853    -8.6817    -7.8246 O.2     
  64 N64          -21.0513    -8.8128    -9.9964 N.am    
  65 C65          -24.0958    -4.4223    -3.6739 C.2     
  66 O66          -24.5792    -5.3472    -4.2918 O.2     
  67 N67          -22.6309    -4.1670    -5.5917 N.am    
  68 C68          -22.9623    -3.6282    -4.2703 C.3     
  69 C69          -23.3826    -2.1635    -4.4075 C.3     
  70 C70          -22.2104    -1.3474    -4.8883 C.ar    
  71 C71          -21.9999    -1.1737    -6.2437 C.ar    
  72 C72          -20.9259    -0.4265    -6.6869 C.ar    
  73 C73          -20.0584     0.1502    -5.7707 C.ar    
  74 O74          -19.0013     0.8861    -6.2042 O.3     
  75 C75          -20.2720    -0.0252    -4.4112 C.ar    
  76 C76          -21.3505    -0.7690    -3.9730 C.ar    
  77 C77          -26.4141    -4.0240    -0.8757 C.2     
  78 O78          -26.0562    -2.8838    -0.6688 O.2     
  79 N79          -24.5724    -4.1046    -2.4539 N.am    
  80 C80          -25.6743    -4.8765    -1.8741 C.3     
  81 C81          -25.1149    -6.1153    -1.1716 C.3     
  82 C82          -24.4721    -7.0415    -2.2059 C.3     
  83 C83          -23.9127    -8.2802    -1.5034 C.3     
  84 N84          -23.2972    -9.1671    -2.4938 N.pl3   
  85 C85          -22.7236   -10.3509    -2.0941 C.2     
  86 N86          -22.7273   -10.6841    -0.8340 N.2     
  87 N87          -22.1460   -11.1831    -3.0236 N.pl3   
  88 C88          -28.8782    -4.5864     1.7653 C.2     
  89 O89          -28.7760    -5.7920     1.6809 O.2     
  90 N90          -27.4735    -4.5285    -0.2127 N.am    
  91 C91          -28.1927    -3.6997     0.7579 C.3     
  92 C92          -29.2380    -2.8524     0.0296 C.3     
  93 C93          -28.5340    -1.8648    -0.9031 C.3     
  94 C94          -29.5792    -1.0174    -1.6313 C.3     
  95 C95          -28.8753    -0.0298    -2.5640 C.3     
  96 N96          -29.8788     0.7838    -3.2633 N.3     
  97 C97          -31.4522    -4.1738     4.3280 C.2     
  98 O98          -31.7117    -3.0461     3.9651 O.2     
  99 N99          -29.6048    -4.0397     2.7602 N.am    
 100 C100         -30.2711    -4.9017     3.7395 C.3     
 101 C101         -29.2873    -5.2625     4.8543 C.3     
 102 C102         -33.6743    -4.6288     7.1948 C.2     
 103 O103         -33.1274    -5.6441     7.5701 O.2     
 104 N104         -32.2200    -4.7761     5.2577 N.am    
 105 C105         -33.3682    -4.0685     5.8297 C.3     
 106 C106         -34.5844    -4.2500     4.9194 C.3     
 107 C107         -34.3004    -3.6157     3.5564 C.3     
 108 C108         -34.8675    -5.7426     4.7383 C.3     
 109 C109         -36.2816    -4.0997     9.7018 C.2     
 110 O110         -36.8911    -3.3325     8.9870 O.2     
 111 N111         -34.5558    -4.0016     7.9985 N.am    
 112 C112         -34.9179    -4.5911     9.2899 C.3     
 113 C113         -33.8880    -4.1810    10.3444 C.3     
 114 C114         -32.5276    -4.7852     9.9908 C.3     
 115 C115         -31.4977    -4.3751    11.0453 C.3     
 116 C116         -30.1373    -4.9793    10.6916 C.3     
 117 N117         -29.1485    -4.5856    11.7041 N.3     
 118 C118         -38.0148    -2.7079    11.9661 C.2     
 119 O119         -36.9232    -2.2120    12.1160 O.2     
 120 N120         -36.8239    -4.5127    10.8644 N.am    
 121 C121         -38.1497    -4.0350    11.2649 C.3     
 122 C122         -38.7926    -5.0495    12.2126 C.3     
 123 O123         -38.0345    -5.1186    13.4220 O.3     
 124 O124         -39.1073    -2.0767    12.4241 O.3     
 125 C125           2.2092    -6.3724   -28.3423 C.2     
 126 O126           2.6409    -5.2626   -28.1121 O.2     
 127 C127          17.3833    -9.1378   -38.9860 C.3     
 128 C128          16.6031    -8.1869   -38.0760 C.3     
 129 C129          15.3254    -8.8765   -37.5935 C.3     
 130 C130          14.5451    -7.9256   -36.6835 C.3     
 131 C131          13.2674    -8.6152   -36.2010 C.3     
 132 C132          12.4872    -7.6644   -35.2911 C.3     
 133 C133          11.2095    -8.3540   -34.8085 C.3     
 134 C134          10.4293    -7.4031   -33.8986 C.3     
 135 C135           9.1516    -8.0927   -33.4160 C.3     
 136 C136           8.3713    -7.1419   -32.5061 C.3     
 137 C137           7.0936    -7.8315   -32.0235 C.3     
 138 C138           6.3134    -6.8806   -31.1136 C.3     
 139 C139           5.0357    -7.5702   -30.6310 C.3     
 140 C140           4.2554    -6.6193   -29.7211 C.3     
 141 C141           2.9778    -7.3089   -29.2385 C.3     
 142 H142           0.6969    -7.6556   -27.9805 H       
 143 H143           0.9938    -5.2543   -26.3455 H       
 144 H144          -1.2823    -5.5443   -28.3585 H       
 145 H145          -1.1395    -4.2636   -27.1306 H       
 146 H146           0.0449    -4.3623   -28.4556 H       
 147 H147          -1.3635    -5.0579   -25.0504 H       
 148 H148          -2.5716    -7.6940   -24.7050 H       
 149 H149          -2.0019    -7.8744   -22.3309 H       
 150 H150          -0.5020    -7.7546   -23.2818 H       
 151 H151          -0.5027    -6.2491   -21.4273 H       
 152 H152          -4.2109    -7.3847   -22.5885 H       
 153 H153          -5.1277    -4.6191   -22.3909 H       
 154 H154          -7.4096    -5.1590   -23.2134 H       
 155 H155          -5.2606    -5.8901   -25.2513 H       
 156 H156          -6.8648    -5.1986   -25.5932 H       
 157 H157          -5.6391    -4.2264   -24.7442 H       
 158 H158          -7.2922    -7.5193   -22.8655 H       
 159 H159          -7.1429    -4.5685   -20.8073 H       
 160 H160          -7.5321    -7.0455   -19.3103 H       
 161 H161          -6.9424    -5.9649   -17.1327 H       
 162 H162          -4.6558    -5.9135   -19.1515 H       
 163 H163          -4.5198    -6.1640   -17.3945 H       
 164 H164          -5.3117    -7.3928   -18.4101 H       
 165 H165          -7.1063    -3.7034   -17.8842 H       
 166 H166          -9.2267    -6.4785   -17.3861 H       
 167 H167         -10.6964    -4.0033   -17.8766 H       
 168 H168         -12.8300    -5.1146   -18.3304 H       
 169 H169         -11.6332    -5.6361   -19.5404 H       
 170 H170         -12.8059    -7.4887   -18.5925 H       
 171 H171         -12.8379    -4.1866   -16.2509 H       
 172 H172         -12.2210    -5.8277   -13.9155 H       
 173 H173         -12.1042    -2.7798   -13.8411 H       
 174 H174         -12.1437    -3.8248   -12.4008 H       
 175 H175         -10.0612    -4.9408   -13.1533 H       
 176 H176         -10.0217    -3.8958   -14.5937 H       
 177 H177          -7.8753    -2.1625   -12.1775 H       
 178 H178         -13.9868    -5.0000   -12.0555 H       
 179 H179         -16.4163    -3.9869   -13.3200 H       
 180 H180         -17.7586    -5.9698   -12.8102 H       
 181 H181         -16.7582    -7.5549   -14.4335 H       
 182 H182         -16.6227    -5.8772   -15.0124 H       
 183 H183         -15.2040    -6.6954   -14.3151 H       
 184 H184         -16.6156    -7.8931   -11.9734 H       
 185 H185         -18.2975    -4.1846   -11.4315 H       
 186 H186         -17.1610    -4.3195    -8.7536 H       
 187 H187         -16.6268    -1.9947    -9.3876 H       
 188 H188         -17.9977    -0.8367    -7.6031 H       
 189 H189         -18.9804    -2.3153    -7.4757 H       
 190 H190         -15.9752    -2.0862    -6.9988 H       
 191 H191         -17.2265    -2.3533    -5.7614 H       
 192 H192         -16.8930    -3.6112    -6.9759 H       
 193 H193         -19.6286    -1.6989    -9.8462 H       
 194 H194         -18.3957    -0.4273   -10.0236 H       
 195 H195         -18.4152    -1.8106   -11.1436 H       
 196 H196         -19.0212    -4.0737    -7.0669 H       
 197 H197         -21.7095    -4.1043    -8.2068 H       
 198 H198         -20.5231    -6.5188    -6.7676 H       
 199 H199         -22.2536    -6.3062    -7.1262 H       
 200 H200         -21.7343    -6.1626    -9.5466 H       
 201 H201         -20.0039    -6.3753    -9.1880 H       
 202 H202         -20.8242    -8.3557   -10.8212 H       
 203 H203         -21.1704    -9.7754    -9.9922 H       
 204 H204         -23.3014    -4.6481    -6.1014 H       
 205 H205         -22.0897    -3.6964    -3.6207 H       
 206 H206         -24.1987    -2.0854    -5.1259 H       
 207 H207         -23.7139    -1.7882    -3.4392 H       
 208 H208         -22.6756    -1.6229    -6.9566 H       
 209 H209         -20.7615    -0.2917    -7.7458 H       
 210 H210         -19.1957     1.8270    -6.3141 H       
 211 H211         -19.5979     0.4225    -3.6960 H       
 212 H212         -21.5198    -0.9022    -2.9147 H       
 213 H213         -24.1858    -3.3648    -1.9597 H       
 214 H214         -26.3576    -5.1851    -2.6654 H       
 215 H215         -24.3656    -5.8112    -0.4408 H       
 216 H216         -25.9237    -6.6420    -0.6651 H       
 217 H217         -25.2215    -7.3456    -2.9368 H       
 218 H218         -23.6634    -6.5148    -2.7125 H       
 219 H219         -23.1634    -7.9762    -0.7726 H       
 220 H220         -24.7215    -8.8070    -0.9969 H       
 221 H221         -23.2945    -8.9191    -3.4316 H       
 222 H222         -22.3226   -11.5193    -0.5520 H       
 223 H223         -22.1432   -10.9352    -3.9613 H       
 224 H224         -21.7412   -12.0183    -2.7415 H       
 225 H225         -27.7598    -5.4404    -0.3782 H       
 226 H226         -27.4874    -3.0454     1.2702 H       
 227 H227         -29.8897    -3.5022    -0.5544 H       
 228 H228         -29.8324    -2.3025     0.7592 H       
 229 H229         -27.8823    -1.2149    -0.3190 H       
 230 H230         -27.9395    -2.4146    -1.6327 H       
 231 H231         -30.2310    -1.6672    -2.2154 H       
 232 H232         -30.1737    -0.4675    -0.9017 H       
 233 H233         -28.2235     0.6201    -1.9800 H       
 234 H234         -28.2808    -0.5796    -3.2936 H       
 235 H235         -30.4846     1.2535    -2.6071 H       
 236 H236         -29.4386     1.4446    -3.8859 H       
 237 H237         -29.6865    -3.0756     2.8277 H       
 238 H238         -30.6136    -5.8125     3.2484 H       
 239 H239         -29.7830    -5.9038     5.5830 H       
 240 H240         -28.4330    -5.7890     4.4287 H       
 241 H241         -28.9448    -4.3517     5.3455 H       
 242 H242         -32.0124    -5.6780     5.5479 H       
 243 H243         -33.1345    -3.0073     5.9166 H       
 244 H244         -35.4514    -3.7679     5.3710 H       
 245 H245         -33.4334    -4.0978     3.1048 H       
 246 H246         -35.1669    -3.7450     2.9078 H       
 247 H247         -34.0987    -2.5523     3.6854 H       
 248 H248         -34.9908    -6.2102     5.7151 H       
 249 H249         -35.7800    -5.8713     4.1561 H       
 250 H250         -34.0335    -6.2097     4.2145 H       
 251 H251         -34.9506    -3.1598     7.7219 H       
 252 H252         -34.9345    -5.6774     9.2014 H       
 253 H253         -33.8073    -3.0943    10.3701 H       
 254 H254         -34.2042    -4.5451    11.3219 H       
 255 H255         -32.6083    -5.8719     9.9651 H       
 256 H256         -32.2114    -4.4212     9.0132 H       
 257 H257         -31.4170    -3.2884    11.0710 H       
 258 H258         -31.8139    -4.7392    12.0228 H       
 259 H259         -30.2180    -6.0660    10.6660 H       
 260 H260         -29.8211    -4.6153     9.7141 H       
 261 H261         -28.2409    -4.9725    11.4929 H       
 262 H262         -29.1018    -3.5815    11.7927 H       
 263 H263         -36.3364    -5.1263    11.4361 H       
 264 H264         -38.7757    -3.9166    10.3804 H       
 265 H265         -39.8122    -4.7387    12.4403 H       
 266 H266         -38.8093    -6.0305    11.7377 H       
 267 H267         -38.3852    -5.7438    14.0709 H       
 268 H268         -38.9706    -1.2281    12.8671 H       
 269 H269          17.6442   -10.0391   -38.4313 H       
 270 H270          16.7681    -9.4051   -39.8451 H       
 271 H271          18.2936    -8.6465   -39.3298 H       
 272 H272          17.2183    -7.9195   -37.2169 H       
 273 H273          16.3422    -7.2856   -38.6307 H       
 274 H274          14.7101    -9.1439   -38.4526 H       
 275 H275          15.5863    -9.7778   -37.0388 H       
 276 H276          15.1604    -7.6583   -35.8244 H       
 277 H277          14.2843    -7.0243   -37.2382 H       
 278 H278          12.6522    -8.8826   -37.0601 H       
 279 H279          13.5283    -9.5166   -35.6463 H       
 280 H280          13.1025    -7.3970   -34.4319 H       
 281 H281          12.2263    -6.7630   -35.8457 H       
 282 H282          10.5943    -8.6213   -35.6676 H       
 283 H283          11.4704    -9.2553   -34.2538 H       
 284 H284          11.0445    -7.1357   -33.0394 H       
 285 H285          10.1684    -6.5018   -34.4532 H       
 286 H286           8.5363    -8.3601   -34.2751 H       
 287 H287           9.4125    -8.9940   -32.8613 H       
 288 H288           8.9866    -6.8745   -31.6470 H       
 289 H289           8.1104    -6.2405   -33.0607 H       
 290 H290           6.4784    -8.0988   -32.8826 H       
 291 H291           7.3545    -8.7328   -31.4688 H       
 292 H292           6.9286    -6.6132   -30.2545 H       
 293 H293           6.0525    -5.9793   -31.6682 H       
 294 H294           4.4204    -7.8376   -31.4901 H       
 295 H295           5.2966    -8.4715   -30.0763 H       
 296 H296           4.8707    -6.3520   -28.8620 H       
 297 H297           3.9946    -5.7180   -30.2757 H       
 298 H298           3.2386    -8.2103   -28.6839 H       
 299 H299           2.3625    -7.5763   -30.0976 H       
@<TRIPOS>BOND
   1    1    2 2
   2    1    4 1
   3    1    8 am
   4    3  125 am
   5    3    4 1
   6    3  142 1
   7    4    5 1
   8    4  143 1
   9    5  144 1
  10    5  145 1
  11    5  146 1
  12    6    7 2
  13    6    9 1
  14    6   14 am
  15    8    9 1
  16    8  147 1
  17    9   10 1
  18    9  148 1
  19   10   11 1
  20   10  149 1
  21   10  150 1
  22   11  151 1
  23   12   13 2
  24   12   15 1
  25   12   21 am
  26   14   15 1
  27   14  152 1
  28   15   16 1
  29   15  153 1
  30   16   17 1
  31   16   18 1
  32   16  154 1
  33   17  155 1
  34   17  156 1
  35   17  157 1
  36   18  158 1
  37   19   20 2
  38   19   22 1
  39   19   28 am
  40   21   22 1
  41   21  159 1
  42   22   23 1
  43   22  160 1
  44   23   24 1
  45   23   25 1
  46   23  161 1
  47   24  162 1
  48   24  163 1
  49   24  164 1
  50   25  165 1
  51   26   27 2
  52   26   29 1
  53   26   34 am
  54   28   29 1
  55   28  166 1
  56   29   30 1
  57   29  167 1
  58   30   31 1
  59   30  168 1
  60   30  169 1
  61   31  170 1
  62   32   33 2
  63   32   35 1
  64   32   43 am
  65   34   35 1
  66   34  171 1
  67   35   36 1
  68   35  172 1
  69   36   37 1
  70   36  173 1
  71   36  174 1
  72   37   38 1
  73   37  175 1
  74   37  176 1
  75   38   39 2
  76   38   40 1
  77   40  177 1
  78   41   42 2
  79   41   44 1
  80   41   50 am
  81   43   44 1
  82   43  178 1
  83   44   45 1
  84   44  179 1
  85   45   46 1
  86   45   47 1
  87   45  180 1
  88   46  181 1
  89   46  182 1
  90   46  183 1
  91   47  184 1
  92   48   49 2
  93   48   51 1
  94   48   58 am
  95   50   51 1
  96   50  185 1
  97   51   52 1
  98   51  186 1
  99   52   53 1
 100   52   55 1
 101   52  187 1
 102   53   54 1
 103   53  188 1
 104   53  189 1
 105   54  190 1
 106   54  191 1
 107   54  192 1
 108   55  193 1
 109   55  194 1
 110   55  195 1
 111   56   57 2
 112   56   59 1
 113   56   67 am
 114   58   59 1
 115   58  196 1
 116   59   60 1
 117   59  197 1
 118   60   61 1
 119   60  198 1
 120   60  199 1
 121   61   62 1
 122   61  200 1
 123   61  201 1
 124   62   63 2
 125   62   64 am
 126   64  202 1
 127   64  203 1
 128   65   66 2
 129   65   68 1
 130   65   79 am
 131   67   68 1
 132   67  204 1
 133   68   69 1
 134   68  205 1
 135   69   70 1
 136   69  206 1
 137   69  207 1
 138   70   71 ar
 139   70   76 ar
 140   71   72 ar
 141   71  208 1
 142   72   73 ar
 143   72  209 1
 144   73   74 1
 145   73   75 ar
 146   74  210 1
 147   75   76 ar
 148   75  211 1
 149   76  212 1
 150   77   78 2
 151   77   80 1
 152   77   90 am
 153   79   80 1
 154   79  213 1
 155   80   81 1
 156   80  214 1
 157   81   82 1
 158   81  215 1
 159   81  216 1
 160   82   83 1
 161   82  217 1
 162   82  218 1
 163   83   84 1
 164   83  219 1
 165   83  220 1
 166   84   85 1
 167   84  221 1
 168   85   86 2
 169   85   87 1
 170   86  222 1
 171   87  223 1
 172   87  224 1
 173   88   89 2
 174   88   91 1
 175   88   99 am
 176   90   91 1
 177   90  225 1
 178   91   92 1
 179   91  226 1
 180   92   93 1
 181   92  227 1
 182   92  228 1
 183   93   94 1
 184   93  229 1
 185   93  230 1
 186   94   95 1
 187   94  231 1
 188   94  232 1
 189   95   96 1
 190   95  233 1
 191   95  234 1
 192   96  235 1
 193   96  236 1
 194   97   98 2
 195   97  100 1
 196   97  104 am
 197   99  100 1
 198   99  237 1
 199  100  101 1
 200  100  238 1
 201  101  239 1
 202  101  240 1
 203  101  241 1
 204  102  103 2
 205  102  105 1
 206  102  111 am
 207  104  105 1
 208  104  242 1
 209  105  106 1
 210  105  243 1
 211  106  107 1
 212  106  108 1
 213  106  244 1
 214  107  245 1
 215  107  246 1
 216  107  247 1
 217  108  248 1
 218  108  249 1
 219  108  250 1
 220  109  110 2
 221  109  112 1
 222  109  120 am
 223  111  112 1
 224  111  251 1
 225  112  113 1
 226  112  252 1
 227  113  114 1
 228  113  253 1
 229  113  254 1
 230  114  115 1
 231  114  255 1
 232  114  256 1
 233  115  116 1
 234  115  257 1
 235  115  258 1
 236  116  117 1
 237  116  259 1
 238  116  260 1
 239  117  261 1
 240  117  262 1
 241  118  119 2
 242  118  121 1
 243  118  124 1
 244  120  121 1
 245  120  263 1
 246  121  122 1
 247  121  264 1
 248  122  123 1
 249  122  265 1
 250  122  266 1
 251  123  267 1
 252  124  268 1
 253  125  126 2
 254  125  141 1
 255  127  128 1
 256  127  269 1
 257  127  270 1
 258  127  271 1
 259  128  129 1
 260  128  272 1
 261  128  273 1
 262  129  130 1
 263  129  274 1
 264  129  275 1
 265  130  131 1
 266  130  276 1
 267  130  277 1
 268  131  132 1
 269  131  278 1
 270  131  279 1
 271  132  133 1
 272  132  280 1
 273  132  281 1
 274  133  134 1
 275  133  282 1
 276  133  283 1
 277  134  135 1
 278  134  284 1
 279  134  285 1
 280  135  136 1
 281  135  286 1
 282  135  287 1
 283  136  137 1
 284  136  288 1
 285  136  289 1
 286  137  138 1
 287  137  290 1
 288  137  291 1
 289  138  139 1
 290  138  292 1
 291  138  293 1
 292  139  140 1
 293  139  294 1
 294  139  295 1
 295  140  141 1
 296  140  296 1
 297  140  297 1
 298  141  298 1
 299  141  299 1

#	End of record

