#	Name: ASD08830086
#	Creating user name:	WinNT
#	Creation time:	15. 06. 2019 21:19

#	Modifying user name:	WinNT
#	Modification time:	15. 06. 2019 21:19

#	Program:	/corina/corina34_cracker 3.40 0067  02.08.2006

@<TRIPOS>MOLECULE
ASD08830086
  44   46    0    0    0
SMALL
NO_CHARGES


@<TRIPOS>ATOM
   1 C1            -0.0178     1.4644     0.0101 C.ar    
   2 C2             0.0021    -0.0041     0.0020 C.2     
   3 C3            -1.2926    -0.7753     0.0102 C.3     
   4 C4            -0.9927    -2.2755    -0.0007 C.3     
   5 N5            -2.2547    -3.0273     0.0073 N.3     
   6 O6             1.0606    -0.5962    -0.0113 O.2     
   7 C7             1.1846     2.1830     0.0025 C.ar    
   8 C8             1.1562     3.5625     0.0101 C.ar    
   9 C9            -0.0666     4.2394     0.0257 C.ar    
  10 C10           -1.2576     3.5268     0.0331 C.ar    
  11 C11           -1.2389     2.1498     0.0196 C.ar    
  12 N12            2.3483     4.3018     0.0014 N.am    
  13 C13            2.3074     5.6128     0.3244 C.2     
  14 C14            0.9974     6.2441     0.7218 C.3     
  15 O15           -0.0763     5.5974     0.0340 O.3     
  16 C16           -2.0182    -4.4557    -0.2408 C.3     
  17 O17            3.3205     6.2791     0.2953 O.2     
  18 C18           -2.9800    -2.8250     1.2687 C.3     
  19 C19           -3.3357    -5.1508    -0.4693 C.ar    
  20 C20           -3.8512    -5.2508    -1.7481 C.ar    
  21 C21           -5.0591    -5.8883    -1.9589 C.ar    
  22 C22           -5.7530    -6.4270    -0.8887 C.ar    
  23 C23           -5.2357    -6.3263     0.3917 C.ar    
  24 C24           -4.0251    -5.6929     0.5994 C.ar    
  25 F25           -6.9341    -7.0501    -1.0936 F       
  26 H26           -1.8592    -0.5245     0.9070 H       
  27 H27           -1.8762    -0.5150    -0.8728 H       
  28 H28           -0.4261    -2.5263    -0.8975 H       
  29 H29           -0.4091    -2.5358     0.8824 H       
  30 H30            2.1293     1.6597    -0.0090 H       
  31 H31           -2.2006     4.0531     0.0453 H       
  32 H32           -2.1671     1.5977     0.0254 H       
  33 H33            3.1890     3.8782    -0.2326 H       
  34 H34            0.8552     6.1384     1.7973 H       
  35 H35            1.0105     7.3022     0.4603 H       
  36 H36           -1.3884    -4.5719    -1.1227 H       
  37 H37           -1.5197    -4.8967     0.6224 H       
  38 H38           -3.2035    -1.7655     1.3935 H       
  39 H39           -3.9103    -3.3926     1.2480 H       
  40 H40           -2.3642    -3.1669     2.1007 H       
  41 H41           -3.3099    -4.8302    -2.5827 H       
  42 H42           -5.4617    -5.9660    -2.9580 H       
  43 H43           -5.7761    -6.7461     1.2272 H       
  44 H44           -3.6214    -5.6141     1.5980 H       
@<TRIPOS>BOND
   1    1    2 1
   2    1    7 ar
   3    1   11 ar
   4    2    3 1
   5    2    6 2
   6    3    4 1
   7    3   26 1
   8    3   27 1
   9    4    5 1
  10    4   28 1
  11    4   29 1
  12    5   16 1
  13    5   18 1
  14    7    8 ar
  15    7   30 1
  16    8    9 ar
  17    8   12 1
  18    9   10 ar
  19    9   15 1
  20   10   11 ar
  21   10   31 1
  22   11   32 1
  23   12   13 am
  24   12   33 1
  25   13   14 1
  26   13   17 2
  27   14   15 1
  28   14   34 1
  29   14   35 1
  30   16   19 1
  31   16   36 1
  32   16   37 1
  33   18   38 1
  34   18   39 1
  35   18   40 1
  36   19   20 ar
  37   19   24 ar
  38   20   21 ar
  39   20   41 1
  40   21   22 ar
  41   21   42 1
  42   22   23 ar
  43   22   25 1
  44   23   24 ar
  45   23   43 1
  46   24   44 1

#	End of record

