#	Name: ASD04590522
#	Creating user name:	WinNT
#	Creation time:	15. 06. 2019 20:51

#	Modifying user name:	WinNT
#	Modification time:	15. 06. 2019 20:51

#	Program:	/corina/corina34_cracker 3.40 0067  02.08.2006

@<TRIPOS>MOLECULE
ASD04590522
  54   58    0    0    0
SMALL
NO_CHARGES


@<TRIPOS>ATOM
   1 C1            -0.0192     1.3810    -0.0392 C.ar    
   2 C2             0.0002    -0.0065    -0.0393 C.ar    
   3 C3             2.3929     0.0175    -0.0550 C.ar    
   4 C4             2.3732     1.4234    -0.0553 C.ar    
   5 C5             1.1596     2.0967    -0.0471 C.ar    
   6 N6             3.6935    -0.3647    -0.0638 N.2     
   7 C7             4.4644     0.6959    -0.0694 C.2     
   8 N8             3.6944     1.8279    -0.0645 N.pl3   
   9 C9             5.9417     0.6728    -0.0796 C.2     
  10 C10            6.7549    -0.4838    -0.0854 C.2     
  11 C11            8.0483    -0.0797    -0.0942 C.2     
  12 N12            8.0603     1.2794    -0.0941 N.pl3   
  13 N13            6.7334     1.7274    -0.0907 N.2     
  14 N14            6.3026    -1.8144    -0.0820 N.am    
  15 C15            7.1909    -2.8281    -0.0883 C.2     
  16 O16            8.3836    -2.5913    -0.0969 O.2     
  17 C17            1.1847    -0.6869    -0.0468 C.ar    
  18 N18            6.7572    -4.1042    -0.0851 N.am    
  19 C19            7.6735    -5.1549    -0.2055 C.ar    
  20 C20           -1.2987    -0.7706    -0.0306 C.3     
  21 N21           -1.7301    -1.0189    -1.4127 N.3     
  22 C22           -2.8593    -1.9595    -1.4513 C.3     
  23 C23           -0.6137    -1.5114    -2.2327 C.3     
  24 C24           -1.0911    -1.6995    -3.6751 C.3     
  25 O25           -2.2084    -2.5921    -3.6895 O.3     
  26 C26           -3.3142    -2.1431    -2.9015 C.3     
  27 C27            7.4545    -6.3497     0.4675 C.ar    
  28 C28            8.8009    -5.0070    -1.0027 C.ar    
  29 C29            9.7035    -6.0459    -1.1195 C.ar    
  30 C30            9.4854    -7.2323    -0.4435 C.ar    
  31 C31            8.3608    -7.3848     0.3466 C.ar    
  32 H32           -0.9641     1.9040    -0.0374 H       
  33 H33            1.1385     3.1765    -0.0473 H       
  34 H34            4.0162     2.7430    -0.0674 H       
  35 H35            8.9156    -0.7233    -0.1002 H       
  36 H36            8.8508     1.8416    -0.0991 H       
  37 H37            5.3512    -2.0033    -0.0752 H       
  38 H38            1.1882    -1.7669    -0.0462 H       
  39 H39            5.8099    -4.2942     0.0006 H       
  40 H40           -1.1572    -1.7219     0.4823 H       
  41 H41           -2.0597    -0.1877     0.4884 H       
  42 H42           -2.5465    -2.9207    -1.0435 H       
  43 H43           -3.6837    -1.5629    -0.8587 H       
  44 H44            0.2012    -0.7878    -2.2104 H       
  45 H45           -0.2649    -2.4654    -1.8373 H       
  46 H46           -1.3896    -0.7360    -4.0883 H       
  47 H47           -0.2827    -2.1185    -4.2743 H       
  48 H48           -4.1137    -2.8830    -2.9413 H       
  49 H49           -3.6773    -1.1925    -3.2922 H       
  50 H50            6.5766    -6.4692     1.0850 H       
  51 H51            8.9716    -4.0807    -1.5312 H       
  52 H52           10.5803    -5.9316    -1.7396 H       
  53 H53           10.1925    -8.0434    -0.5367 H       
  54 H54            8.1935    -8.3125     0.8736 H       
@<TRIPOS>BOND
   1    1    2 ar
   2    1    5 ar
   3    1   32 1
   4    2   17 ar
   5    2   20 1
   6    3    4 ar
   7    3    6 1
   8    3   17 ar
   9    4    5 ar
  10    4    8 1
  11    5   33 1
  12    6    7 2
  13    7    8 1
  14    7    9 1
  15    8   34 1
  16    9   10 1
  17    9   13 2
  18   10   11 2
  19   10   14 1
  20   11   12 1
  21   11   35 1
  22   12   13 1
  23   12   36 1
  24   14   15 am
  25   14   37 1
  26   15   16 2
  27   15   18 am
  28   17   38 1
  29   18   19 1
  30   18   39 1
  31   19   27 ar
  32   19   28 ar
  33   20   21 1
  34   20   40 1
  35   20   41 1
  36   21   22 1
  37   21   23 1
  38   22   26 1
  39   22   42 1
  40   22   43 1
  41   23   24 1
  42   23   44 1
  43   23   45 1
  44   24   25 1
  45   24   46 1
  46   24   47 1
  47   25   26 1
  48   26   48 1
  49   26   49 1
  50   27   31 ar
  51   27   50 1
  52   28   29 ar
  53   28   51 1
  54   29   30 ar
  55   29   52 1
  56   30   31 ar
  57   30   53 1
  58   31   54 1

#	End of record

