#	Name: ASD01910913
#	Creating user name:	WinNT
#	Creation time:	15. 06. 2019 19:56

#	Modifying user name:	WinNT
#	Modification time:	15. 06. 2019 19:56

#	Program:	/corina/corina34_cracker 3.40 0067  02.08.2006

@<TRIPOS>MOLECULE
ASD01910913
  61   65    0    0    0
SMALL
NO_CHARGES


@<TRIPOS>ATOM
   1 N1            -0.1168     1.3255    -0.4010 N.am    
   2 C2            -0.0748    -0.1332    -0.2268 C.3     
   3 C3            -0.8132    -0.4935     1.0682 C.3     
   4 N4            -2.1182     0.1824     1.0684 N.am    
   5 C5            -2.1602     1.6411     0.8941 C.3     
   6 C6            -1.4214     2.0022    -0.3953 C.3     
   7 C7            -3.2560    -0.5228     1.2250 C.2     
   8 C8            -4.5502     0.1809     1.3533 C.ar    
   9 C9            -5.6766    -0.2979     0.6806 C.ar    
  10 C10           -6.8866     0.3575     0.7987 C.ar    
  11 C11           -6.9925     1.4893     1.5814 C.ar    
  12 C12           -5.8729     1.9804     2.2604 C.ar    
  13 C13           -4.6497     1.3193     2.1500 C.ar    
  14 C14           -5.9835     3.1551     3.0719 C.1     
  15 O15           -3.2183    -1.7372     1.2609 O.2     
  16 C16           -6.0742     4.1181     3.7372 C.1     
  17 C17           -6.1848     5.2928     4.5486 C.ar    
  18 C18           -5.0729     5.7922     5.2314 C.ar    
  19 N19           -5.1755     6.8724     5.9774 N.ar    
  20 C20           -6.3162     7.5214     6.1111 C.ar    
  21 C21           -7.4634     7.0911     5.4682 C.ar    
  22 C22           -7.4090     5.9648     4.6671 C.ar    
  23 S23            1.2812     2.1920    -0.5935 S.o2    
  24 C24            1.5545     2.2178    -2.3866 C.3     
  25 O25            0.9559     3.4917    -0.1199 O.2     
  26 O26            2.2731     1.4045     0.0508 O.2     
  27 C27            2.8137     2.9875    -2.6918 C.ar    
  28 C28            4.0277     2.3294    -2.7489 C.ar    
  29 C29            5.1852     3.0322    -3.0271 C.ar    
  30 C30            5.1310     4.3997    -3.2499 C.ar    
  31 C31            3.9094     5.0610    -3.1958 C.ar    
  32 C32            2.7517     4.3495    -2.9198 C.ar    
  33 O33            6.2798     5.0796    -3.5152 O.3     
  34 C34            6.1383     6.3787    -4.1003 C.3     
  35 C35            5.0553     7.1403    -3.3245 C.3     
  36 O36            3.8326     6.4014    -3.4191 O.3     
  37 H37           -0.5628    -0.6169    -1.0729 H       
  38 H38            0.9617    -0.4640    -0.1611 H       
  39 H39           -0.9601    -1.5725     1.1174 H       
  40 H40           -0.2293    -0.1618     1.9267 H       
  41 H41           -3.1967     1.9719     0.8284 H       
  42 H42           -1.6722     2.1248     1.7403 H       
  43 H43           -1.2752     3.0813    -0.4432 H       
  44 H44           -2.0033     1.6708    -1.2553 H       
  45 H45           -5.6012    -1.1828     0.0660 H       
  46 H46           -7.7541    -0.0173     0.2757 H       
  47 H47           -7.9417     1.9969     1.6694 H       
  48 H48           -3.7816     1.6938     2.6720 H       
  49 H49           -4.1216     5.2879     5.1469 H       
  50 H50           -6.3554     8.4034     6.7332 H       
  51 H51           -8.3908     7.6317     5.5871 H       
  52 H52           -8.2893     5.6070     4.1538 H       
  53 H53            1.6550     1.1964    -2.7536 H       
  54 H54            0.7074     2.6981    -2.8764 H       
  55 H55            4.0722     1.2644    -2.5754 H       
  56 H56            6.1326     2.5157    -3.0706 H       
  57 H57            1.8016     4.8612    -2.8756 H       
  58 H58            7.0842     6.9163    -4.0347 H       
  59 H59            5.8422     6.2810    -5.1448 H       
  60 H60            5.3488     7.2331    -2.2788 H       
  61 H61            4.9205     8.1312    -3.7583 H       
@<TRIPOS>BOND
   1    1    2 1
   2    1   23 am
   3    1    6 1
   4    2    3 1
   5    2   37 1
   6    2   38 1
   7    3    4 1
   8    3   39 1
   9    3   40 1
  10    4    5 1
  11    4    7 am
  12    5    6 1
  13    5   41 1
  14    5   42 1
  15    6   43 1
  16    6   44 1
  17    7    8 1
  18    7   15 2
  19    8    9 ar
  20    8   13 ar
  21    9   10 ar
  22    9   45 1
  23   10   11 ar
  24   10   46 1
  25   11   12 ar
  26   11   47 1
  27   12   13 ar
  28   12   14 1
  29   13   48 1
  30   14   16 3
  31   16   17 1
  32   17   18 ar
  33   17   22 ar
  34   18   19 ar
  35   18   49 1
  36   19   20 ar
  37   20   21 ar
  38   20   50 1
  39   21   22 ar
  40   21   51 1
  41   22   52 1
  42   23   24 1
  43   23   25 2
  44   23   26 2
  45   24   27 1
  46   24   53 1
  47   24   54 1
  48   27   28 ar
  49   27   32 ar
  50   28   29 ar
  51   28   55 1
  52   29   30 ar
  53   29   56 1
  54   30   31 ar
  55   30   33 1
  56   31   32 ar
  57   31   36 1
  58   32   57 1
  59   33   34 1
  60   34   35 1
  61   34   58 1
  62   34   59 1
  63   35   36 1
  64   35   60 1
  65   35   61 1

#	End of record

