#	Name: ASD01880274
#	Creating user name:	WinNT
#	Creation time:	15. 06. 2019 19:40

#	Modifying user name:	WinNT
#	Modification time:	15. 06. 2019 19:40

#	Program:	/corina/corina34_cracker 3.40 0067  02.08.2006

@<TRIPOS>MOLECULE
ASD01880274
  42   44    0    0    0
SMALL
NO_CHARGES


@<TRIPOS>ATOM
   1 C1            -0.0184     1.5028     0.0103 C.3     
   2 C2             0.0021    -0.0041     0.0020 C.2     
   3 C3            -0.0797    -0.6889     1.1666 C.2     
   4 N4            -0.0626    -2.0464     1.1751 N.am    
   5 C5             0.0357    -2.7410     0.0256 C.2     
   6 C6             0.1220    -2.0615    -1.2015 C.2     
   7 C7             0.1000    -0.6977    -1.2124 C.2     
   8 O8             0.0503    -3.9613     0.0496 O.2     
   9 C9            -0.1515    -2.7638     2.4493 C.3     
  10 C10           -1.5985    -3.0284     2.7769 C.ar    
  11 C11           -2.2032    -4.1935     2.3435 C.ar    
  12 C12           -3.5302    -4.4367     2.6437 C.ar    
  13 C13           -4.2534    -3.5138     3.3780 C.ar    
  14 C14           -3.6477    -2.3479     3.8115 C.ar    
  15 C15           -2.3190    -2.1084     3.5155 C.ar    
  16 Cl16          -5.9204    -3.8183     3.7549 Cl      
  17 C17            1.3954     2.0244    -0.0004 C.ar    
  18 C18            2.0314     2.2697    -1.2017 C.ar    
  19 C19            3.3330     2.7504    -1.2109 C.ar    
  20 C20            3.9922     2.9834    -0.0129 C.ar    
  21 C21            3.3517     2.7364     1.1861 C.ar    
  22 C22            2.0530     2.2625     1.1926 C.ar    
  23 O23            3.9610     2.9920    -2.3916 O.3     
  24 C24            5.3002     3.4860    -2.3249 C.3     
  25 H25           -0.5455     1.8639    -0.8728 H       
  26 H26           -0.5286     1.8543     0.9071 H       
  27 H27           -0.1591    -0.1498     2.0990 H       
  28 H28            0.2013    -2.6133    -2.1264 H       
  29 H29            0.1652    -0.1580    -2.1457 H       
  30 H30            0.3824    -3.7109     2.3711 H       
  31 H31            0.2951    -2.1591     3.2386 H       
  32 H32           -1.6386    -4.9137     1.7700 H       
  33 H33           -4.0026    -5.3469     2.3048 H       
  34 H34           -4.2118    -1.6270     4.3848 H       
  35 H35           -1.8461    -1.1983     3.8538 H       
  36 H36            1.5161     2.0871    -2.1332 H       
  37 H37            5.0054     3.3572    -0.0174 H       
  38 H38            3.8645     2.9177     2.1192 H       
  39 H39            1.5540     2.0701     2.1309 H       
  40 H40            5.9279     2.7647    -1.8016 H       
  41 H41            5.6830     3.6357    -3.3344 H       
  42 H42            5.3113     4.4344    -1.7877 H       
@<TRIPOS>BOND
   1    1    2 1
   2    1   17 1
   3    1   25 1
   4    1   26 1
   5    2    3 2
   6    2    7 1
   7    3    4 1
   8    3   27 1
   9    4    5 am
  10    4    9 1
  11    5    6 1
  12    5    8 2
  13    6    7 2
  14    6   28 1
  15    7   29 1
  16    9   10 1
  17    9   30 1
  18    9   31 1
  19   10   11 ar
  20   10   15 ar
  21   11   12 ar
  22   11   32 1
  23   12   13 ar
  24   12   33 1
  25   13   14 ar
  26   13   16 1
  27   14   15 ar
  28   14   34 1
  29   15   35 1
  30   17   18 ar
  31   17   22 ar
  32   18   19 ar
  33   18   36 1
  34   19   20 ar
  35   19   23 1
  36   20   21 ar
  37   20   37 1
  38   21   22 ar
  39   21   38 1
  40   22   39 1
  41   23   24 1
  42   24   40 1
  43   24   41 1
  44   24   42 1

#	End of record

