#	Name: ASD05740237
#	Creating user name:	WinNT
#	Creation time:	15. 06. 2019 21:03

#	Modifying user name:	WinNT
#	Modification time:	15. 06. 2019 21:03

#	Program:	/corina/corina34_cracker 3.40 0067  02.08.2006

@<TRIPOS>MOLECULE
ASD05740237
  64   68    0    0    0
SMALL
NO_CHARGES


@<TRIPOS>ATOM
   1 C1             1.4104    -2.1269     0.2436 C.3     
   2 N2             0.5714    -1.3603     1.1754 N.3     
   3 C3            -0.7791    -1.6950     1.0257 C.ar    
   4 C4            -1.7391    -1.0787     1.8177 C.ar    
   5 C5            -3.0716    -1.4090     1.6701 C.ar    
   6 C6            -3.4517    -2.3578     0.7300 C.ar    
   7 C7            -2.4917    -2.9744    -0.0616 C.ar    
   8 C8            -1.1599    -2.6394     0.0814 C.ar    
   9 N9            -4.8035    -2.6932     0.5806 N.pl3   
  10 C10           -5.7752    -1.7210     0.7155 C.ar    
  11 N11           -5.3975    -0.4647     0.9259 N.ar    
  12 N12           -7.0486    -2.0758     0.6249 N.ar    
  13 C13           -8.0084    -1.1683     0.7496 C.ar    
  14 C14           -7.6445     0.1768     0.9797 C.ar    
  15 C15           -6.2861     0.5032     1.0620 C.ar    
  16 N16           -9.3345    -1.5044     0.6602 N.am    
  17 C17          -10.2946    -0.5713     0.7882 C.2     
  18 C18           -9.9868     0.7848     1.0182 C.2     
  19 C19           -8.6918     1.1841     1.1185 C.2     
  20 C20           -9.7112    -2.8999     0.4215 C.3     
  21 O21          -11.4629    -0.9076     0.7025 O.2     
  22 C22           -9.7771    -3.6343     1.7358 C.ar    
  23 C23           -9.9866    -5.0000     1.7547 C.ar    
  24 C24            1.0128    -1.5597     2.5628 C.3     
  25 C25            2.4687    -1.1084     2.7020 C.3     
  26 N26            3.3076    -1.8750     1.7702 N.3     
  27 C27            2.8662    -1.6756     0.3828 C.3     
  28 C28          -10.0476    -5.6740     2.9604 C.ar    
  29 C29           -9.8992    -4.9827     4.1481 C.ar    
  30 C30           -9.6891    -3.6166     4.1317 C.ar    
  31 C31           -9.6221    -2.9416     2.9249 C.ar    
  32 S32          -10.1766    -5.8828     0.2417 S.o2    
  33 F33           -9.4163    -1.6065     2.9076 F       
  34 C34            4.7253    -1.5236     1.9273 C.3     
  35 C35          -11.7506    -5.2870    -0.4354 C.3     
  36 O36           -9.0899    -5.4415    -0.5604 O.2     
  37 O37          -10.2881    -7.2420     0.6407 O.2     
  38 H38            1.3350    -3.1891     0.4761 H       
  39 H39            1.0718    -1.9530    -0.7778 H       
  40 H40           -1.4434    -0.3413     2.5493 H       
  41 H41           -3.8182    -0.9297     2.2859 H       
  42 H42           -2.7873    -3.7129    -0.7922 H       
  43 H43           -0.4133    -3.1189    -0.5343 H       
  44 H44           -5.0571    -3.6082     0.3823 H       
  45 H45           -5.9719     1.5214     1.2374 H       
  46 H46          -10.7825     1.5085     1.1157 H       
  47 H47           -8.4438     2.2204     1.2945 H       
  48 H48          -10.6866    -2.9351    -0.0636 H       
  49 H49           -8.9683    -3.3719    -0.2215 H       
  50 H50            0.3845    -0.9722     3.2323 H       
  51 H51            0.9330    -2.6154     2.8217 H       
  52 H52            2.5440    -0.0462     2.4695 H       
  53 H53            2.8072    -1.2823     3.7234 H       
  54 H54            3.4946    -2.2631    -0.2867 H       
  55 H55            2.9460    -0.6199     0.1239 H       
  56 H56          -10.2118    -6.7413     2.9742 H       
  57 H57           -9.9477    -5.5100     5.0894 H       
  58 H58           -9.5735    -3.0766     5.0598 H       
  59 H59            5.0435    -1.7440     2.9463 H       
  60 H60            5.3236    -2.1053     1.2260 H       
  61 H61            4.8607    -0.4609     1.7262 H       
  62 H62          -11.7174    -4.2017    -0.5310 H       
  63 H63          -11.9165    -5.7333    -1.4159 H       
  64 H64          -12.5636    -5.5680     0.2340 H       
@<TRIPOS>BOND
   1    1    2 1
   2    1   27 1
   3    1   38 1
   4    1   39 1
   5    2    3 1
   6    2   24 1
   7    3    4 ar
   8    3    8 ar
   9    4    5 ar
  10    4   40 1
  11    5    6 ar
  12    5   41 1
  13    6    7 ar
  14    6    9 1
  15    7    8 ar
  16    7   42 1
  17    8   43 1
  18    9   10 1
  19    9   44 1
  20   10   11 ar
  21   10   12 ar
  22   11   15 ar
  23   12   13 ar
  24   13   14 ar
  25   13   16 1
  26   14   15 ar
  27   14   19 1
  28   15   45 1
  29   16   17 am
  30   16   20 1
  31   17   18 1
  32   17   21 2
  33   18   19 2
  34   18   46 1
  35   19   47 1
  36   20   22 1
  37   20   48 1
  38   20   49 1
  39   22   23 ar
  40   22   31 ar
  41   23   28 ar
  42   23   32 1
  43   24   25 1
  44   24   50 1
  45   24   51 1
  46   25   26 1
  47   25   52 1
  48   25   53 1
  49   26   27 1
  50   26   34 1
  51   27   54 1
  52   27   55 1
  53   28   29 ar
  54   28   56 1
  55   29   30 ar
  56   29   57 1
  57   30   31 ar
  58   30   58 1
  59   31   33 1
  60   32   35 1
  61   32   36 2
  62   32   37 2
  63   34   59 1
  64   34   60 1
  65   34   61 1
  66   35   62 1
  67   35   63 1
  68   35   64 1

#	End of record

