#	Name: ASD04590466
#	Creating user name:	WinNT
#	Creation time:	15. 06. 2019 20:50

#	Modifying user name:	WinNT
#	Modification time:	15. 06. 2019 20:50

#	Program:	/corina/corina34_cracker 3.40 0067  02.08.2006

@<TRIPOS>MOLECULE
ASD04590466
  58   63    0    0    0
SMALL
NO_CHARGES


@<TRIPOS>ATOM
   1 C1            -0.0167     1.3832     0.0096 C.ar    
   2 C2             0.0021    -0.0041     0.0020 C.ar    
   3 C3             2.4020     0.0223    -0.0203 C.ar    
   4 C4             2.3769     1.4283    -0.0129 C.ar    
   5 C5             1.1624     2.0986     0.0022 C.ar    
   6 N6             3.7040    -0.3552    -0.0355 N.2     
   7 C7             4.4709     0.7083    -0.0381 C.2     
   8 N8             3.6969     1.8375    -0.0245 N.pl3   
   9 C9             5.9482     0.6906    -0.0529 C.2     
  10 C10            6.7657    -0.4631    -0.0671 C.2     
  11 C11            8.0579    -0.0539    -0.0787 C.2     
  12 N12            8.0646     1.3050    -0.0722 N.pl3   
  13 N13            6.7360     1.7480    -0.0610 N.2     
  14 N14            6.3188    -1.7943    -0.0689 N.am    
  15 C15            7.2109    -2.8046    -0.0832 C.2     
  16 O16            8.4027    -2.5632    -0.0945 O.2     
  17 C17            1.1969    -0.6870    -0.0126 C.ar    
  18 C18           -1.2962    -0.7693     0.0103 C.3     
  19 N19           -1.7312    -1.0105    -1.3719 N.3     
  20 C20           -2.8597    -1.9518    -1.4124 C.3     
  21 C21           -0.6167    -1.4976    -2.1976 C.3     
  22 C22           -1.0980    -1.6784    -3.6397 C.3     
  23 O23           -2.2146    -2.5718    -3.6558 O.3     
  24 C24           -3.3186    -2.1280    -2.8624 C.3     
  25 C25            6.7413    -4.2034    -0.0850 C.ar    
  26 C26            5.3760    -4.4845    -0.0721 C.ar    
  27 C27            7.6662    -5.2577    -0.1057 C.ar    
  28 C28            7.1965    -6.5810    -0.1070 C.ar    
  29 C29            5.8272    -6.8399    -0.0884 C.ar    
  30 C30            4.9285    -5.7928    -0.0737 C.ar    
  31 O31            9.0108    -5.3093    -0.1263 O.3     
  32 C32            9.4424    -6.5827    -0.1409 C.2     
  33 C33            8.3992    -7.4232    -0.1305 C.2     
  34 C34           10.8893    -7.0033    -0.1661 C.3     
  35 H35           -0.9614     1.9066     0.0169 H       
  36 H36            1.1403     3.1784     0.0079 H       
  37 H37            4.0155     2.7537    -0.0234 H       
  38 H38            8.9276    -0.6941    -0.0906 H       
  39 H39            8.8529     1.8702    -0.0777 H       
  40 H40            5.3682    -1.9869    -0.0599 H       
  41 H41            1.2037    -1.7669    -0.0177 H       
  42 H42           -1.1524    -1.7232     0.5176 H       
  43 H43           -2.0561    -0.1898     0.5345 H       
  44 H44           -2.5450    -2.9149    -1.0107 H       
  45 H45           -3.6828    -1.5591    -0.8154 H       
  46 H46            0.1976    -0.7734    -2.1738 H       
  47 H47           -0.2660    -2.4535    -1.8084 H       
  48 H48           -1.3984    -0.7129    -4.0469 H       
  49 H49           -0.2909    -2.0935    -4.2434 H       
  50 H50           -4.1175    -2.8683    -2.9039 H       
  51 H51           -3.6836    -1.1756    -3.2469 H       
  52 H52            4.6622    -3.6741    -0.0603 H       
  53 H53            5.4697    -7.8591    -0.0899 H       
  54 H54            3.8680    -5.9967    -0.0590 H       
  55 H55            8.4354    -8.5026    -0.1379 H       
  56 H56           11.5250    -6.1179    -0.1702 H       
  57 H57           11.1085    -7.6040     0.7167 H       
  58 H58           11.0809    -7.5923    -1.0631 H       
@<TRIPOS>BOND
   1    1    2 ar
   2    1    5 ar
   3    1   35 1
   4    2   17 ar
   5    2   18 1
   6    3    4 ar
   7    3    6 1
   8    3   17 ar
   9    4    5 ar
  10    4    8 1
  11    5   36 1
  12    6    7 2
  13    7    8 1
  14    7    9 1
  15    8   37 1
  16    9   10 1
  17    9   13 2
  18   10   11 2
  19   10   14 1
  20   11   12 1
  21   11   38 1
  22   12   13 1
  23   12   39 1
  24   14   15 am
  25   14   40 1
  26   15   16 2
  27   15   25 1
  28   17   41 1
  29   18   19 1
  30   18   42 1
  31   18   43 1
  32   19   20 1
  33   19   21 1
  34   20   24 1
  35   20   44 1
  36   20   45 1
  37   21   22 1
  38   21   46 1
  39   21   47 1
  40   22   23 1
  41   22   48 1
  42   22   49 1
  43   23   24 1
  44   24   50 1
  45   24   51 1
  46   25   26 ar
  47   25   27 ar
  48   26   30 ar
  49   26   52 1
  50   27   28 ar
  51   27   31 1
  52   28   29 ar
  53   28   33 1
  54   29   30 ar
  55   29   53 1
  56   30   54 1
  57   31   32 1
  58   32   33 2
  59   32   34 1
  60   33   55 1
  61   34   56 1
  62   34   57 1
  63   34   58 1

#	End of record

