#	Name: ASD01150866
#	Creating user name:	WinNT
#	Creation time:	15. 06. 2019 19:05

#	Modifying user name:	WinNT
#	Modification time:	15. 06. 2019 19:05

#	Program:	/corina/corina34_cracker 3.40 0067  02.08.2006

@<TRIPOS>MOLECULE
ASD01150866
  55   57    0    0    0
SMALL
NO_CHARGES


@<TRIPOS>ATOM
   1 C1            -0.0180     1.4732     0.0101 C.ar    
   2 C2             0.0021    -0.0041     0.0020 C.2     
   3 N3            -1.1558    -0.6938     0.0094 N.am    
   4 O4             1.0629    -0.5975    -0.0113 O.2     
   5 C5            -1.1370    -2.0836     0.0017 C.2     
   6 N6            -0.0478    -2.8559    -0.0124 N.2     
   7 C7            -0.3959    -4.1265    -0.0152 C.2     
   8 N8            -1.7505    -4.2220    -0.0028 N.pl3   
   9 C9            -2.2479    -2.9178     0.0135 C.2     
  10 C10           -3.6019    -2.5267     0.0308 C.2     
  11 O11           -4.5752    -3.4630     0.0328 O.3     
  12 O12           -3.8942    -1.3445     0.0439 O.2     
  13 C13           -5.9254    -2.9952     0.0508 C.3     
  14 C14           -6.8795    -4.1912     0.0504 C.3     
  15 S15            0.7214    -5.4889    -0.0330 S.3     
  16 C16            2.2989    -4.6015    -0.0433 C.3     
  17 C17           -2.5386    -5.4569    -0.0018 C.3     
  18 C18            1.1799     2.1903     0.0026 C.ar    
  19 C19            1.1545     3.5703     0.0103 C.ar    
  20 C20           -0.0571     4.2433     0.0255 C.ar    
  21 C21           -1.2482     3.5363     0.0331 C.ar    
  22 C22           -1.2352     2.1576     0.0196 C.ar    
  23 Cl23          -0.0818     5.9791     0.0357 Cl      
  24 C24           -2.7997    -5.8941     1.4410 C.3     
  25 N25           -3.5900    -7.1324     1.4420 N.3     
  26 C26           -3.6602    -7.7115     2.7915 C.3     
  27 C27           -4.5399    -8.9640     2.7583 C.3     
  28 O28           -4.0124    -9.8857     1.8004 O.3     
  29 C29           -3.9307    -9.3547     0.4750 C.3     
  30 C30           -3.0448    -8.1061     0.4850 C.3     
  31 Cl31           2.6424     4.4644     0.0014 Cl      
  32 H32           -2.0023    -0.2203     0.0200 H       
  33 H33           -6.0912    -2.3983     0.9477 H       
  34 H34           -6.1096    -2.3831    -0.8321 H       
  35 H35           -6.6953    -4.8032     0.9333 H       
  36 H36           -7.9094    -3.8344     0.0641 H       
  37 H37           -6.7137    -4.7880    -0.8465 H       
  38 H38            2.3552    -3.9709    -0.9306 H       
  39 H39            2.3722    -3.9802     0.8493 H       
  40 H40            3.1193    -5.3191    -0.0549 H       
  41 H41           -3.4889    -5.2819    -0.5061 H       
  42 H42           -1.9886    -6.2394    -0.5246 H       
  43 H43            2.1242     1.6664    -0.0090 H       
  44 H44           -2.1892     4.0662     0.0453 H       
  45 H45           -2.1648     1.6079     0.0256 H       
  46 H46           -1.8494    -6.0691     1.9453 H       
  47 H47           -3.3498    -5.1116     1.9638 H       
  48 H48           -2.6577    -7.9795     3.1251 H       
  49 H49           -4.0903    -6.9827     3.4784 H       
  50 H50           -4.5486    -9.4289     3.7442 H       
  51 H51           -5.5559    -8.6878     2.4765 H       
  52 H52           -3.4987   -10.1021    -0.1905 H       
  53 H53           -4.9290    -9.0899     0.1268 H       
  54 H54           -3.0257    -7.6654    -0.5117 H       
  55 H55           -2.0325    -8.3805     0.7817 H       
@<TRIPOS>BOND
   1    1    2 1
   2    1   18 ar
   3    1   22 ar
   4    2    3 am
   5    2    4 2
   6    3    5 1
   7    3   32 1
   8    5    6 1
   9    5    9 2
  10    6    7 2
  11    7    8 1
  12    7   15 1
  13    8    9 1
  14    8   17 1
  15    9   10 1
  16   10   11 1
  17   10   12 2
  18   11   13 1
  19   13   14 1
  20   13   33 1
  21   13   34 1
  22   14   35 1
  23   14   36 1
  24   14   37 1
  25   15   16 1
  26   16   38 1
  27   16   39 1
  28   16   40 1
  29   17   24 1
  30   17   41 1
  31   17   42 1
  32   18   19 ar
  33   18   43 1
  34   19   20 ar
  35   19   31 1
  36   20   21 ar
  37   20   23 1
  38   21   22 ar
  39   21   44 1
  40   22   45 1
  41   24   25 1
  42   24   46 1
  43   24   47 1
  44   25   26 1
  45   25   30 1
  46   26   27 1
  47   26   48 1
  48   26   49 1
  49   27   28 1
  50   27   50 1
  51   27   51 1
  52   28   29 1
  53   29   30 1
  54   29   52 1
  55   29   53 1
  56   30   54 1
  57   30   55 1

#	End of record

