#	Name: ASD02190009
#	Creating user name:	WinNT
#	Creation time:	15. 06. 2019 20:18

#	Modifying user name:	WinNT
#	Modification time:	15. 06. 2019 20:18

#	Program:	/corina/corina34_cracker 3.40 0067  02.08.2006

@<TRIPOS>MOLECULE
ASD02190009
  42   44    0    0    0
SMALL
NO_CHARGES


@<TRIPOS>ATOM
   1 C1            -0.0357     1.5284     0.0056 C.3     
   2 C2             2.0194     2.3647     1.1844 C.ar    
   3 N3             3.2517     2.8459     1.1465 N.ar    
   4 C4             3.8652     3.0599    -0.0125 C.ar    
   5 N5             3.2709     2.8019    -1.1720 N.ar    
   6 C6             2.0348     2.3171    -1.2047 C.ar    
   7 C7             1.3677     2.0775    -0.0008 C.ar    
   8 N8             1.4163     2.0491    -2.4170 N.pl3   
   9 C9             2.0424     2.3985    -3.6099 C.ar    
  10 C10            1.8619     1.6130    -4.7450 C.ar    
  11 C11            2.4794     1.9556    -5.9260 C.ar    
  12 C12            3.2886     3.0946    -5.9853 C.ar    
  13 C13            3.4673     3.8817    -4.8433 C.ar    
  14 C14            2.8430     3.5360    -3.6668 C.ar    
  15 C15            5.2392     3.5974    -0.0114 C.2     
  16 C16            5.9559     3.9025     1.0907 C.2     
  17 C17            0.0142     0.0225     0.0313 C.2     
  18 C18           -0.6164    -0.6379     0.9707 C.2     
  19 C19            7.2190     4.3909     0.8395 C.2     
  20 C20            7.5422     4.4884    -0.4550 C.2     
  21 S21            6.1999     3.9328    -1.4461 S.3     
  22 C22            1.3356     2.1263     2.5060 C.3     
  23 C23            3.9520     3.4644    -7.2486 C.2     
  24 O24            3.7961     2.7793    -8.2400 O.2     
  25 O25            4.7315     4.5623    -7.3041 O.3     
  26 H26           -0.5630     1.8896     0.8886 H       
  27 H27           -0.5595     1.8594    -0.8911 H       
  28 H28            0.5475     1.6180    -2.4333 H       
  29 H29            1.2368     0.7335    -4.6985 H       
  30 H30            2.3395     1.3453    -6.8060 H       
  31 H31            4.0916     4.7619    -4.8857 H       
  32 H32            2.9803     4.1436    -2.7845 H       
  33 H33            5.5693     3.7740     2.0910 H       
  34 H34            0.5698    -0.5124    -0.7248 H       
  35 H35           -1.1720    -0.1030     1.7267 H       
  36 H36           -0.5807    -1.7171     0.9890 H       
  37 H37            7.8984     4.6748     1.6295 H       
  38 H38            8.4868     4.8494    -0.8341 H       
  39 H39            0.7965     3.0257     2.8036 H       
  40 H40            0.6341     1.2978     2.4080 H       
  41 H41            2.0818     1.8829     3.2624 H       
  42 H42            5.1454     4.7643    -8.1543 H       
@<TRIPOS>BOND
   1    1   17 1
   2    1    7 1
   3    1   26 1
   4    1   27 1
   5    2    3 ar
   6    2   22 1
   7    2    7 ar
   8    3    4 ar
   9    4    5 ar
  10    4   15 1
  11    5    6 ar
  12    6    7 ar
  13    6    8 1
  14    8    9 1
  15    8   28 1
  16    9   10 ar
  17    9   14 ar
  18   10   11 ar
  19   10   29 1
  20   11   12 ar
  21   11   30 1
  22   12   13 ar
  23   12   23 1
  24   13   14 ar
  25   13   31 1
  26   14   32 1
  27   15   16 2
  28   15   21 1
  29   16   19 1
  30   16   33 1
  31   17   18 2
  32   17   34 1
  33   18   35 1
  34   18   36 1
  35   19   20 2
  36   19   37 1
  37   20   21 1
  38   20   38 1
  39   22   39 1
  40   22   40 1
  41   22   41 1
  42   23   24 2
  43   23   25 1
  44   25   42 1

#	End of record

