#	Name: ASD00843396
#	Creating user name:	WinNT
#	Creation time:	15. 06. 2019 18:46

#	Modifying user name:	WinNT
#	Modification time:	15. 06. 2019 18:46

#	Program:	/corina/corina34_cracker 3.40 0067  02.08.2006

@<TRIPOS>MOLECULE
ASD00843396
  89   94    0    0    0
SMALL
NO_CHARGES


@<TRIPOS>ATOM
   1 N1             0.7313     1.1443    -0.6410 N.ar    
   2 C2             0.9489    -0.1456    -0.8354 C.ar    
   3 C3             0.8664    -1.0444     0.2207 C.ar    
   4 C4             0.5526    -0.5727     1.4832 C.ar    
   5 C5             0.3314     0.7882     1.6455 C.ar    
   6 C6             0.4303     1.6238     0.5511 C.ar    
   7 C7             1.1147    -2.5134    -0.0057 C.3     
   8 C8             0.8327    -3.3000     1.2567 C.2     
   9 C9             0.2559    -3.0292    -1.1621 C.3     
  10 C10           -1.1909    -2.6993    -0.8993 C.2     
  11 N11           -2.1435    -3.1151    -1.7573 N.am    
  12 O12           -1.4981    -2.0596     0.0842 O.2     
  13 C13           -3.5424    -2.7022    -1.5802 C.3     
  14 C14           -4.4259    -3.9534    -1.5512 C.3     
  15 C15           -4.1701    -4.7829    -2.8117 C.3     
  16 C16           -2.7057    -5.2263    -2.8442 C.3     
  17 C17           -1.8018    -3.9850    -2.8910 C.3     
  18 C18           -5.0760    -6.0159    -2.8030 C.3     
  19 C19           -6.5416    -5.5738    -2.7722 C.3     
  20 C20           -7.4432    -6.8093    -2.8251 C.3     
  21 N21           -7.1672    -7.5660    -4.0530 N.3     
  22 C22           -5.7782    -8.0414    -4.0828 C.3     
  23 C23           -4.8269    -6.8427    -4.0674 C.3     
  24 H24           -7.8143    -8.3330    -4.1582 H       
  25 O25           -0.2313    -3.3788     1.8333 O.2     
  26 N26            1.9817    -3.8949     1.6180 N.am    
  27 C27            2.5804    -2.7677    -0.2758 C.ar    
  28 C28            3.0257    -3.6054     0.7439 C.ar    
  29 C29            3.4320    -2.3416    -1.2633 C.ar    
  30 C30            4.7702    -2.7507    -1.2528 C.ar    
  31 C31            5.2250    -3.5929    -0.2309 C.ar    
  32 C32            4.3590    -4.0152     0.7550 C.ar    
  33 F33            6.5151    -3.9935    -0.2117 F       
  34 C34            1.7839    -6.5123     2.4452 C.ar    
  35 C35            0.5108    -6.8453     2.0068 C.ar    
  36 C36            2.7754    -7.4740     2.4783 C.ar    
  37 C37            2.4995    -8.7671     2.0745 C.ar    
  38 C38            1.2310    -9.1015     1.6370 C.ar    
  39 C39            0.2363    -8.1439     1.6024 C.ar    
  40 H40            1.0180   -10.1124     1.3220 H       
  41 O41           -0.4663    -5.9012     1.9737 O.3     
  42 C42           -1.7532    -6.3155     1.5109 C.3     
  43 C43           -2.7145    -5.1257     1.5444 C.3     
  44 C44            5.6672    -2.3120    -2.2792 C.1     
  45 N45            6.3788    -1.9640    -3.0935 N.1     
  46 O46            1.2553    -0.5955    -2.0782 O.3     
  47 C47            1.2434     0.3644    -3.1368 C.3     
  48 C48            1.7064    -0.3015    -4.4341 C.3     
  49 F49            2.9683    -0.8735    -4.2402 F       
  50 F50            0.7940    -1.2974    -4.7986 F       
  51 S51            2.1384    -4.8626     2.9526 S.o2    
  52 O52            3.5145    -4.8385     3.3063 O.2     
  53 O53            1.0996    -4.4856     3.8459 O.2     
  54 H54            0.4811    -1.2479     2.3230 H       
  55 H55            0.0843     1.1889     2.6175 H       
  56 H56            0.2595     2.6833     0.6720 H       
  57 H57            0.5738    -2.5548    -2.0905 H       
  58 H58            0.3725    -4.1095    -1.2476 H       
  59 H59           -3.6470    -2.1593    -0.6409 H       
  60 H60           -3.8423    -2.0622    -2.4099 H       
  61 H61           -4.1860    -4.5478    -0.6696 H       
  62 H62           -5.4744    -3.6576    -1.5169 H       
  63 H63           -4.3865    -4.1797    -3.6934 H       
  64 H64           -2.4820    -5.8087    -1.9504 H       
  65 H65           -2.5299    -5.8365    -3.7301 H       
  66 H66           -1.9612    -3.4521    -3.8284 H       
  67 H67           -0.7581    -4.2899    -2.8145 H       
  68 H68           -4.8594    -6.6208    -1.9225 H       
  69 H69           -6.7357    -5.0208    -1.8532 H       
  70 H70           -6.7475    -4.9360    -3.6318 H       
  71 H71           -7.2466    -7.4398    -1.9580 H       
  72 H72           -8.4876    -6.4973    -2.8178 H       
  73 H73           -5.5893    -8.6662    -3.2098 H       
  74 H74           -5.6132    -8.6244    -4.9889 H       
  75 H75           -5.0057    -6.2249    -4.9474 H       
  76 H76           -3.7958    -7.1963    -4.0738 H       
  77 H77            3.0705    -1.6923    -2.0471 H       
  78 H78            4.7151    -4.6649     1.5409 H       
  79 H79            3.7669    -7.2153     2.8196 H       
  80 H80            3.2761    -9.5172     2.1004 H       
  81 H81           -0.7544    -8.4058     1.2613 H       
  82 H82           -1.6699    -6.6866     0.4894 H       
  83 H83           -2.1334    -7.1080     2.1555 H       
  84 H84           -2.7979    -4.7545     2.5659 H       
  85 H85           -2.3344    -4.3331     0.8998 H       
  86 H86           -3.6962    -5.4416     1.1914 H       
  87 H87            0.2320     0.7493    -3.2669 H       
  88 H88            1.9159     1.1859    -2.8899 H       
  89 H89            1.7640     0.4457    -5.2256 H       
@<TRIPOS>BOND
   1    1    2 ar
   2    1    6 ar
   3    2    3 ar
   4    2   46 1
   5    3    4 ar
   6    3    7 1
   7    4    5 ar
   8    4   54 1
   9    5    6 ar
  10    5   55 1
  11    6   56 1
  12    7    8 1
  13    7    9 1
  14    7   27 1
  15    8   25 2
  16    8   26 am
  17    9   10 1
  18    9   57 1
  19    9   58 1
  20   10   11 am
  21   10   12 2
  22   11   13 1
  23   11   17 1
  24   13   14 1
  25   13   59 1
  26   13   60 1
  27   14   15 1
  28   14   61 1
  29   14   62 1
  30   15   16 1
  31   15   18 1
  32   15   63 1
  33   16   17 1
  34   16   64 1
  35   16   65 1
  36   17   66 1
  37   17   67 1
  38   18   19 1
  39   18   23 1
  40   18   68 1
  41   19   20 1
  42   19   69 1
  43   19   70 1
  44   20   21 1
  45   20   71 1
  46   20   72 1
  47   21   22 1
  48   21   24 1
  49   22   23 1
  50   22   73 1
  51   22   74 1
  52   23   75 1
  53   23   76 1
  54   26   51 am
  55   26   28 1
  56   27   28 ar
  57   27   29 ar
  58   28   32 ar
  59   29   30 ar
  60   29   77 1
  61   30   31 ar
  62   30   44 1
  63   31   32 ar
  64   31   33 1
  65   32   78 1
  66   34   35 ar
  67   34   36 ar
  68   34   51 1
  69   35   41 1
  70   35   39 ar
  71   36   37 ar
  72   36   79 1
  73   37   38 ar
  74   37   80 1
  75   38   39 ar
  76   38   40 1
  77   39   81 1
  78   41   42 1
  79   42   43 1
  80   42   82 1
  81   42   83 1
  82   43   84 1
  83   43   85 1
  84   43   86 1
  85   44   45 3
  86   46   47 1
  87   47   48 1
  88   47   87 1
  89   47   88 1
  90   48   49 1
  91   48   50 1
  92   48   89 1
  93   51   52 2
  94   51   53 2

#	End of record

