#	Name: ASD06120002
#	Creating user name:	WinNT
#	Creation time:	15. 06. 2019 21:05

#	Modifying user name:	WinNT
#	Modification time:	15. 06. 2019 21:05

#	Program:	/corina/corina34_cracker 3.40 0067  02.08.2006

@<TRIPOS>MOLECULE
ASD06120002
  59   61    0    0    0
SMALL
NO_CHARGES


@<TRIPOS>ATOM
   1 P1            -0.0198     1.6058     0.0109 P.3     
   2 P2             2.1671     3.5690     0.3967 P.3     
   3 O3            -0.0384    -2.6398     1.2420 O.3     
   4 O4             5.2713     4.7891     0.9023 O.3     
   5 O5            -2.4571    -3.5931    -1.1627 O.3     
   6 O6            -1.7506    -5.5812     0.2631 O.3     
   7 O7             0.0021    -0.0041     0.0020 O.3     
   8 O8             3.6080     3.6903    -0.3112 O.3     
   9 O9             7.0553     3.9167    -2.7335 O.3     
  10 O10            4.4112     5.0048    -2.6528 O.3     
  11 O11            7.8945     2.5628    -0.3577 O.3     
  12 O12            1.4907     2.1630    -0.0006 O.3     
  13 O13            7.7976     2.6329     2.4199 O.3     
  14 O14            1.6288    -5.9590     1.9881 O.2     
  15 O15            6.9025     4.5889     2.9263 O.2     
  16 O16           -0.7984     2.1391    -1.2935 O.3     
  17 O17            2.3461     3.6459     1.9948 O.3     
  18 O18           -0.7125     2.0831     1.2285 O.2     
  19 O19            1.2997     4.6793    -0.0566 O.2     
  20 O20            0.9897    -5.6999     6.3737 O.2     
  21 N21            0.1304    -4.5051     2.7244 N.am    
  22 N22            1.3503    -5.8716     4.1831 N.am    
  23 C23           -2.0719    -3.1606     0.1436 C.3     
  24 C24           -1.6432    -4.3669     1.0088 C.3     
  25 C25           -0.8037    -2.2815     0.0707 C.3     
  26 C26           -0.1668    -4.0738     1.3562 C.3     
  27 C27            6.2070     3.7797    -1.5917 C.3     
  28 C28            5.2642     4.9839    -1.5065 C.3     
  29 C29            7.0619     3.7236    -0.3219 C.3     
  30 C30           -1.1801    -0.7991     0.1135 C.3     
  31 C31            4.4142     4.8680    -0.2384 C.3     
  32 C32            6.1425     3.6563     0.9003 C.3     
  33 C33            1.0540    -5.4602     2.9363 C.2     
  34 C34           -0.5299    -3.9287     3.7752 C.2     
  35 C35            6.9752     3.6605     2.1564 C.2     
  36 C36           -0.2518    -4.3222     5.0365 C.2     
  37 C37            0.7222    -5.3282     5.2453 C.2     
  38 H38           -2.8879    -2.6186     0.6216 H       
  39 H39           -2.2474    -4.4212     1.9144 H       
  40 H40           -0.2389    -2.5045    -0.8344 H       
  41 H41            0.4957    -4.5717     0.6482 H       
  42 H42            5.6220     2.8642    -1.6798 H       
  43 H43            5.8493     5.9029    -1.4711 H       
  44 H44            7.6842     4.6165    -0.2621 H       
  45 H45           -1.6790    -0.5780     1.0570 H       
  46 H46           -1.8511    -0.5706    -0.7146 H       
  47 H47            3.7714     5.7439    -0.1503 H       
  48 H48            5.5502     2.7422     0.8597 H       
  49 H49           -3.2124    -4.1968    -1.1704 H       
  50 H50           -2.6488    -5.7828    -0.0330 H       
  51 H51           -1.2696    -3.1623     3.5966 H       
  52 H52            6.5791     3.9654    -3.5737 H       
  53 H53            3.7865     5.7428    -2.6649 H       
  54 H54            8.4643     2.4634     0.4173 H       
  55 H55            2.0186    -6.5616     4.3181 H       
  56 H56           -0.7653    -3.8753     5.8750 H       
  57 H57            8.3115     2.6804     3.2376 H       
  58 H58           -0.3990     1.8638    -2.1300 H       
  59 H59            2.9042     2.9469     2.3622 H       
@<TRIPOS>BOND
   1    1    7 1
   2    1   12 1
   3    1   16 1
   4    1   18 2
   5    2    8 1
   6    2   12 1
   7    2   17 1
   8    2   19 2
   9    3   25 1
  10    3   26 1
  11    4   31 1
  12    4   32 1
  13    5   49 1
  14    5   23 1
  15    6   50 1
  16    6   24 1
  17    7   30 1
  18    8   31 1
  19    9   52 1
  20    9   27 1
  21   10   53 1
  22   10   28 1
  23   11   54 1
  24   11   29 1
  25   13   35 1
  26   13   57 1
  27   14   33 2
  28   15   35 2
  29   16   58 1
  30   17   59 1
  31   20   37 2
  32   21   33 am
  33   21   34 1
  34   21   26 1
  35   22   33 am
  36   22   37 am
  37   22   55 1
  38   23   24 1
  39   23   38 1
  40   23   25 1
  41   24   26 1
  42   24   39 1
  43   25   30 1
  44   25   40 1
  45   26   41 1
  46   27   28 1
  47   27   42 1
  48   27   29 1
  49   28   31 1
  50   28   43 1
  51   29   44 1
  52   29   32 1
  53   30   45 1
  54   30   46 1
  55   31   47 1
  56   32   35 1
  57   32   48 1
  58   34   36 2
  59   34   51 1
  60   36   37 1
  61   36   56 1

#	End of record

