#	Name: ASD00731027
#	Creating user name:	WinNT
#	Creation time:	15. 06. 2019 18:37

#	Modifying user name:	WinNT
#	Modification time:	15. 06. 2019 18:37

#	Program:	/corina/corina34_cracker 3.40 0067  02.08.2006

@<TRIPOS>MOLECULE
ASD00731027
 234  236    0    0    0
SMALL
NO_CHARGES


@<TRIPOS>ATOM
   1 C1            -0.0144     1.2086     0.0087 C.2     
   2 O2             0.0021    -0.0041     0.0020 O.2     
   3 N3             2.4066     1.0431    -0.0153 N.am    
   4 C4             1.2803     1.9798     0.0005 C.3     
   5 C5            -3.5426     1.9694    -0.5709 C.2     
   6 O6            -3.2948     3.0926    -0.9556 O.2     
   7 N7            -1.1906     1.8666     0.0178 N.am    
   8 C8            -2.4492     1.1169     0.0197 C.3     
   9 C9            -2.8163     0.7401     1.4565 C.3     
  10 O10           -3.0819     1.9267     2.2071 O.3     
  11 C11           -7.1934     1.8552    -0.7166 C.2     
  12 O12           -7.2513     0.9284     0.0635 O.2     
  13 N13           -4.7957     1.4837    -0.6717 N.am    
  14 C14           -5.8586     2.3124    -1.2459 C.3     
  15 C15           -5.8417     2.1796    -2.7700 C.3     
  16 C16           -4.5360     2.7591    -3.3180 C.3     
  17 C17           -4.5191     2.6263    -4.8421 C.3     
  18 N18           -3.2688     3.1811    -5.3668 N.pl3   
  19 C19           -3.0275     3.1724    -6.7203 C.2     
  20 N20           -3.9111     2.6705    -7.5366 N.2     
  21 N21           -1.8542     3.6930    -7.2127 N.pl3   
  22 C22          -10.7041     2.4068    -1.5736 C.2     
  23 O23          -10.4202     2.9881    -2.5995 O.2     
  24 N24           -8.3230     2.4763    -1.1101 N.am    
  25 C25           -9.6207     2.0318    -0.5955 C.3     
  26 C26           -9.8934     2.7057     0.7507 C.3     
  27 C27           -8.8653     2.2276     1.7780 C.3     
  28 C28           -9.0597     2.9931     3.0884 C.3     
  29 C29           -9.0539     0.7302     2.0293 C.3     
  30 C30          -14.3550     2.5850    -1.5307 C.2     
  31 O31          -14.4062     2.3884    -0.3350 O.2     
  32 N32          -11.9884     2.0962    -1.3083 N.am    
  33 C33          -13.0416     2.4607    -2.2592 C.3     
  34 C34          -13.1552     1.3780    -3.3342 C.3     
  35 C35          -11.8649     1.3373    -4.1554 C.3     
  36 C36          -11.9784     0.2546    -5.2305 C.3     
  37 N37          -10.7429     0.2157    -6.0168 N.pl3   
  38 C38          -10.6119    -0.6850    -7.0471 C.2     
  39 N39           -9.5127    -0.7196    -7.7467 N.2     
  40 N40          -11.6404    -1.5492    -7.3396 N.pl3   
  41 C41          -17.8831     2.7975    -2.4639 C.2     
  42 O42          -17.6476     2.5513    -3.6279 O.2     
  43 N43          -15.4727     2.9146    -2.2080 N.am    
  44 C44          -16.7494     3.0354    -1.4998 C.3     
  45 C45          -16.8719     4.4398    -0.9051 C.3     
  46 C46          -15.7956     4.6363     0.1644 C.3     
  47 C47          -15.9181     6.0407     0.7591 C.3     
  48 C48          -14.8418     6.2372     1.8287 C.3     
  49 N49          -14.9594     7.5856     2.3997 N.3     
  50 C50          -21.5012     3.3190    -2.4668 C.2     
  51 O51          -21.4682     3.9438    -1.4278 O.2     
  52 N52          -19.1585     2.8584    -2.0326 N.am    
  53 C53          -20.2605     2.6272    -2.9698 C.3     
  54 C54          -20.5255     1.1247    -3.0847 C.3     
  55 C55          -19.3283     0.4493    -3.7025 C.2     
  56 C56          -19.1582     0.1578    -5.0017 C.2     
  57 N57          -17.9483    -0.4536    -5.1882 N.pl3   
  58 C58          -17.2937    -0.5735    -3.9828 C.ar    
  59 C59          -16.0632    -1.1038    -3.6100 C.ar    
  60 C60          -15.6778    -1.0746    -2.2874 C.ar    
  61 C61          -16.5058    -0.5207    -1.3210 C.ar    
  62 C62          -17.7192     0.0054    -1.6651 C.ar    
  63 C63          -18.1269    -0.0079    -3.0001 C.ar    
  64 C64          -25.0733     3.2269    -3.2380 C.2     
  65 O65          -24.9474     2.2682    -3.9701 O.2     
  66 N66          -22.6475     3.2436    -3.1716 N.am    
  67 C67          -23.8537     3.9162    -2.6826 C.3     
  68 C68          -23.8425     5.3772    -3.1367 C.3     
  69 C69          -22.6739     6.1086    -2.4731 C.3     
  70 S70          -22.6607     7.8408    -3.0114 S.3     
  71 C71          -21.2304     8.5299    -2.1339 C.3     
  72 C72          -28.6417     3.9764    -3.4988 C.2     
  73 O73          -28.4875     5.1158    -3.1130 O.2     
  74 N74          -26.3040     3.6758    -2.9210 N.am    
  75 C75          -27.4896     3.0057    -3.4609 C.3     
  76 C76          -27.8537     1.8167    -2.5694 C.3     
  77 C77          -26.7533     0.7889    -2.6286 C.ar    
  78 C78          -25.7051     0.8459    -1.7291 C.ar    
  79 C79          -24.6957    -0.0970    -1.7834 C.ar    
  80 C80          -24.7345    -1.0970    -2.7370 C.ar    
  81 C81          -25.7831    -1.1545    -3.6359 C.ar    
  82 C82          -26.7948    -0.2143    -3.5788 C.ar    
  83 C83          -31.6481     4.5418    -2.6563 C.2     
  84 O84          -31.2423     3.8395    -1.7607 O.2     
  85 N85          -29.8433     3.5784    -3.9616 N.am    
  86 C86          -30.9632     4.5222    -3.9985 C.3     
  87 C87          -31.9611     4.0876    -5.0739 C.3     
  88 C88          -33.0662     5.1384    -5.1987 C.3     
  89 C89          -33.9941     4.7675    -6.3572 C.3     
  90 C90          -32.5777     2.7428    -4.6840 C.3     
  91 O91          -32.7089     5.3394    -2.4557 O.3     
  92 C92            3.6710     1.5096    -0.0249 C.2     
  93 O93            3.8764     2.7048    -0.0204 O.2     
  94 C94           22.2645    -0.8215    -0.2149 C.3     
  95 C95           21.0883     0.1568    -0.1985 C.3     
  96 C96           19.7738    -0.6261    -0.1901 C.3     
  97 C97           18.5976     0.3522    -0.1736 C.3     
  98 C98           17.2831    -0.4308    -0.1653 C.3     
  99 C99           16.1069     0.5475    -0.1488 C.3     
 100 C100          14.7924    -0.2354    -0.1404 C.3     
 101 C101          13.6162     0.7429    -0.1240 C.3     
 102 C102          12.3017    -0.0401    -0.1156 C.3     
 103 C103          11.1255     0.9382    -0.0991 C.3     
 104 C104           9.8110     0.1553    -0.0908 C.3     
 105 C105           8.6348     1.1336    -0.0743 C.3     
 106 C106           7.3203     0.3506    -0.0660 C.3     
 107 C107           6.1440     1.3289    -0.0495 C.3     
 108 C108           4.8296     0.5460    -0.0411 C.3     
 109 H109           2.2423     0.0871    -0.0189 H       
 110 H110           1.3211     2.6120    -0.8866 H       
 111 H111           1.3381     2.6024     0.8933 H       
 112 H112          -1.2037     2.8365     0.0232 H       
 113 H113          -2.3335     0.2109    -0.5752 H       
 114 H114          -3.7039     0.1075     1.4507 H       
 115 H115          -1.9875     0.1991     1.9132 H       
 116 H116          -3.3217     1.7632     3.1295 H       
 117 H117          -4.9939     0.5854    -0.3641 H       
 118 H118          -5.6959     3.3544    -0.9701 H       
 119 H119          -5.9154     1.1272    -3.0439 H       
 120 H120          -6.6863     2.7247    -3.1916 H       
 121 H121          -4.4623     3.8115    -3.0442 H       
 122 H122          -3.6914     2.2140    -2.8964 H       
 123 H123          -4.5927     1.5738    -5.1160 H       
 124 H124          -5.3636     3.1713    -5.2637 H       
 125 H125          -2.6113     3.5545    -4.7593 H       
 126 H126          -3.7408     2.6644    -8.4915 H       
 127 H127          -1.1967     4.0665    -6.6052 H       
 128 H128          -1.6839     3.6869    -8.1676 H       
 129 H129          -8.2768     3.2176    -1.7340 H       
 130 H130          -9.6082     0.9498    -0.4643 H       
 131 H131          -9.8181     3.7872     0.6376 H       
 132 H132         -10.8955     2.4450     1.0911 H       
 133 H133          -7.8601     2.4083     1.3973 H       
 134 H134         -10.0649     2.8123     3.4691 H       
 135 H135          -8.3272     2.6524     3.8202 H       
 136 H136          -8.9253     4.0598     2.9093 H       
 137 H137         -10.0591     0.5494     2.4101 H       
 138 H138          -8.9155     0.1848     1.0958 H       
 139 H139          -8.3215     0.3895     2.7612 H       
 140 H140         -12.2155     1.6313    -0.4878 H       
 141 H141         -12.7944     3.4133    -2.7276 H       
 142 H142         -13.3143     0.4098    -2.8595 H       
 143 H143         -13.9962     1.6038    -3.9899 H       
 144 H144         -11.7057     2.3055    -4.6302 H       
 145 H145         -11.0239     1.1116    -3.4998 H       
 146 H146         -12.1376    -0.7135    -4.7557 H       
 147 H147         -12.8194     0.4804    -5.8861 H       
 148 H148         -10.0173     0.8255    -5.8104 H       
 149 H149          -9.4202    -1.3552    -8.4737 H       
 150 H150         -12.4584    -1.5235    -6.8190 H       
 151 H151         -11.5479    -2.1847    -8.0666 H       
 152 H152         -15.4317     3.0718    -3.1643 H       
 153 H153         -16.7922     2.2968    -0.6993 H       
 154 H154         -16.7403     5.1809    -1.6935 H       
 155 H155         -17.8574     4.5591    -0.4551 H       
 156 H156         -15.9272     3.8952     0.9528 H       
 157 H157         -14.8101     4.5170    -0.2856 H       
 158 H158         -15.7865     6.7818    -0.0292 H       
 159 H159         -16.9036     6.1600     1.2092 H       
 160 H160         -14.9734     5.4961     2.6170 H       
 161 H161         -13.8563     6.1179     1.3786 H       
 162 H162         -15.8862     7.7436     2.7660 H       
 163 H163         -14.2589     7.7401     3.1092 H       
 164 H164         -19.3468     3.0553    -1.1016 H       
 165 H165         -19.9942     3.0251    -3.9490 H       
 166 H166         -20.7045     0.7104    -2.0925 H       
 167 H167         -21.4011     0.9571    -3.7119 H       
 168 H168         -19.8709     0.3735    -5.7840 H       
 169 H169         -17.6032    -0.7573    -6.0424 H       
 170 H170         -15.4120    -1.5373    -4.3546 H       
 171 H171         -14.7221    -1.4871    -1.9998 H       
 172 H172         -16.1887    -0.5057    -0.2887 H       
 173 H173         -18.3584     0.4344    -0.9075 H       
 174 H174         -22.6739     2.7439    -4.0026 H       
 175 H175         -23.8769     3.8743    -1.5937 H       
 176 H176         -23.7298     5.4201    -4.2201 H       
 177 H177         -24.7797     5.8540    -2.8498 H       
 178 H178         -22.7866     6.0657    -1.3898 H       
 179 H179         -21.7367     5.6317    -2.7601 H       
 180 H180         -21.1233     9.5850    -2.3859 H       
 181 H181         -21.3792     8.4264    -1.0591 H       
 182 H182         -20.3293     7.9925    -2.4294 H       
 183 H183         -26.4046     4.4425    -2.3355 H       
 184 H184         -27.2791     2.6520    -4.4702 H       
 185 H185         -27.9774     2.1578    -1.5415 H       
 186 H186         -28.7854     1.3721    -2.9193 H       
 187 H187         -25.6748     1.6272    -0.9841 H       
 188 H188         -23.8764    -0.0520    -1.0811 H       
 189 H189         -23.9455    -1.8332    -2.7799 H       
 190 H190         -25.8133    -1.9357    -4.3811 H       
 191 H191         -27.6160    -0.2614    -4.2787 H       
 192 H192         -29.9666     2.6672    -4.2702 H       
 193 H193         -30.5903     5.5197    -4.2307 H       
 194 H194         -31.4453     3.9876    -6.0290 H       
 195 H195         -33.6388     5.1752    -4.2719 H       
 196 H196         -32.6197     6.1144    -5.3889 H       
 197 H197         -33.4215     4.7306    -7.2839 H       
 198 H198         -34.4406     3.7915    -6.1669 H       
 199 H199         -34.7814     5.5160    -6.4461 H       
 200 H200         -33.0934     2.8428    -3.7289 H       
 201 H201         -33.2886     2.4332    -5.4501 H       
 202 H202         -31.7904     1.9942    -4.5951 H       
 203 H203         -33.1148     5.3176    -1.5783 H       
 204 H204          22.2238    -1.4536     0.6721 H       
 205 H205          22.2068    -1.4441    -1.1078 H       
 206 H206          23.2010    -0.2637    -0.2209 H       
 207 H207          21.1460     0.7794     0.6944 H       
 208 H208          21.1290     0.7890    -1.0855 H       
 209 H209          19.7161    -1.2487    -1.0829 H       
 210 H210          19.7331    -1.2583     0.6969 H       
 211 H211          18.6553     0.9748     0.7192 H       
 212 H212          18.6383     0.9843    -1.0607 H       
 213 H213          17.2254    -1.0534    -1.0581 H       
 214 H214          17.2424    -1.0629     0.7218 H       
 215 H215          16.1646     1.1701     0.7440 H       
 216 H216          16.1476     1.1797    -1.0358 H       
 217 H217          14.7347    -0.8580    -1.0333 H       
 218 H218          14.7517    -0.8676     0.7466 H       
 219 H219          13.6739     1.3655     0.7689 H       
 220 H220          13.6569     1.3750    -1.0110 H       
 221 H221          12.2440    -0.6627    -1.0084 H       
 222 H222          12.2610    -0.6722     0.7714 H       
 223 H223          11.1832     1.5608     0.7937 H       
 224 H224          11.1662     1.5704    -0.9862 H       
 225 H225           9.7533    -0.4673    -0.9836 H       
 226 H226           9.7703    -0.4769     0.7962 H       
 227 H227           8.6925     1.7562     0.8185 H       
 228 H228           8.6755     1.7657    -0.9613 H       
 229 H229           7.2626    -0.2720    -0.9588 H       
 230 H230           7.2796    -0.2815     0.8211 H       
 231 H231           6.2018     1.9515     0.8434 H       
 232 H232           6.1848     1.9611    -0.9365 H       
 233 H233           4.7888    -0.0862     0.8459 H       
 234 H234           4.7719    -0.0766    -0.9340 H       
@<TRIPOS>BOND
   1    1    2 2
   2    1    4 1
   3    1    7 am
   4    3    4 1
   5    3   92 am
   6    3  109 1
   7    4  110 1
   8    4  111 1
   9    5    6 2
  10    5    8 1
  11    5   13 am
  12    7    8 1
  13    7  112 1
  14    8    9 1
  15    8  113 1
  16    9   10 1
  17    9  114 1
  18    9  115 1
  19   10  116 1
  20   11   12 2
  21   11   14 1
  22   11   24 am
  23   13   14 1
  24   13  117 1
  25   14   15 1
  26   14  118 1
  27   15   16 1
  28   15  119 1
  29   15  120 1
  30   16   17 1
  31   16  121 1
  32   16  122 1
  33   17   18 1
  34   17  123 1
  35   17  124 1
  36   18   19 1
  37   18  125 1
  38   19   20 2
  39   19   21 1
  40   20  126 1
  41   21  127 1
  42   21  128 1
  43   22   23 2
  44   22   25 1
  45   22   32 am
  46   24   25 1
  47   24  129 1
  48   25   26 1
  49   25  130 1
  50   26   27 1
  51   26  131 1
  52   26  132 1
  53   27   28 1
  54   27   29 1
  55   27  133 1
  56   28  134 1
  57   28  135 1
  58   28  136 1
  59   29  137 1
  60   29  138 1
  61   29  139 1
  62   30   31 2
  63   30   33 1
  64   30   43 am
  65   32   33 1
  66   32  140 1
  67   33   34 1
  68   33  141 1
  69   34   35 1
  70   34  142 1
  71   34  143 1
  72   35   36 1
  73   35  144 1
  74   35  145 1
  75   36   37 1
  76   36  146 1
  77   36  147 1
  78   37   38 1
  79   37  148 1
  80   38   39 2
  81   38   40 1
  82   39  149 1
  83   40  150 1
  84   40  151 1
  85   41   42 2
  86   41   44 1
  87   41   52 am
  88   43   44 1
  89   43  152 1
  90   44   45 1
  91   44  153 1
  92   45   46 1
  93   45  154 1
  94   45  155 1
  95   46   47 1
  96   46  156 1
  97   46  157 1
  98   47   48 1
  99   47  158 1
 100   47  159 1
 101   48   49 1
 102   48  160 1
 103   48  161 1
 104   49  162 1
 105   49  163 1
 106   50   51 2
 107   50   53 1
 108   50   66 am
 109   52   53 1
 110   52  164 1
 111   53   54 1
 112   53  165 1
 113   54   55 1
 114   54  166 1
 115   54  167 1
 116   55   56 2
 117   55   63 1
 118   56   57 1
 119   56  168 1
 120   57   58 1
 121   57  169 1
 122   58   59 ar
 123   58   63 ar
 124   59   60 ar
 125   59  170 1
 126   60   61 ar
 127   60  171 1
 128   61   62 ar
 129   61  172 1
 130   62   63 ar
 131   62  173 1
 132   64   65 2
 133   64   67 1
 134   64   74 am
 135   66   67 1
 136   66  174 1
 137   67   68 1
 138   67  175 1
 139   68   69 1
 140   68  176 1
 141   68  177 1
 142   69   70 1
 143   69  178 1
 144   69  179 1
 145   70   71 1
 146   71  180 1
 147   71  181 1
 148   71  182 1
 149   72   73 2
 150   72   75 1
 151   72   85 am
 152   74   75 1
 153   74  183 1
 154   75   76 1
 155   75  184 1
 156   76   77 1
 157   76  185 1
 158   76  186 1
 159   77   78 ar
 160   77   82 ar
 161   78   79 ar
 162   78  187 1
 163   79   80 ar
 164   79  188 1
 165   80   81 ar
 166   80  189 1
 167   81   82 ar
 168   81  190 1
 169   82  191 1
 170   83   84 2
 171   83   86 1
 172   83   91 1
 173   85   86 1
 174   85  192 1
 175   86   87 1
 176   86  193 1
 177   87   88 1
 178   87   90 1
 179   87  194 1
 180   88   89 1
 181   88  195 1
 182   88  196 1
 183   89  197 1
 184   89  198 1
 185   89  199 1
 186   90  200 1
 187   90  201 1
 188   90  202 1
 189   91  203 1
 190   92   93 2
 191   92  108 1
 192   94   95 1
 193   94  204 1
 194   94  205 1
 195   94  206 1
 196   95   96 1
 197   95  207 1
 198   95  208 1
 199   96   97 1
 200   96  209 1
 201   96  210 1
 202   97   98 1
 203   97  211 1
 204   97  212 1
 205   98   99 1
 206   98  213 1
 207   98  214 1
 208   99  100 1
 209   99  215 1
 210   99  216 1
 211  100  101 1
 212  100  217 1
 213  100  218 1
 214  101  102 1
 215  101  219 1
 216  101  220 1
 217  102  103 1
 218  102  221 1
 219  102  222 1
 220  103  104 1
 221  103  223 1
 222  103  224 1
 223  104  105 1
 224  104  225 1
 225  104  226 1
 226  105  106 1
 227  105  227 1
 228  105  228 1
 229  106  107 1
 230  106  229 1
 231  106  230 1
 232  107  108 1
 233  107  231 1
 234  107  232 1
 235  108  233 1
 236  108  234 1

#	End of record

