#	Name: ASD04880517
#	Creating user name:	WinNT
#	Creation time:	15. 06. 2019 20:53

#	Modifying user name:	WinNT
#	Modification time:	15. 06. 2019 20:53

#	Program:	/corina/corina34_cracker 3.40 0067  02.08.2006

@<TRIPOS>MOLECULE
ASD04880517
  36   39    0    0    0
SMALL
NO_CHARGES


@<TRIPOS>ATOM
   1 C1            -0.0144     1.2118     0.0087 C.2     
   2 O2             0.0577    -0.0018    -0.0140 O.2     
   3 C3             1.2187     2.0259    -0.0193 C.ar    
   4 C4             2.4678     1.4094     0.0724 C.ar    
   5 C5             3.6164     2.1767     0.0450 C.ar    
   6 C6             3.5289     3.5549    -0.0731 C.ar    
   7 C7             2.2934     4.1698    -0.1643 C.ar    
   8 C8             1.1393     3.4140    -0.1434 C.ar    
   9 F9             4.8266     1.5829     0.1341 F       
  10 N10           -1.2190     1.8146     0.0539 N.am    
  11 N11           -1.4351     3.1838     0.1955 N.2     
  12 C12           -2.6816     3.5210     0.2119 C.2     
  13 C13           -3.5402     2.2849     0.0677 C.3     
  14 C14           -2.5202     1.1346    -0.0448 C.3     
  15 O15           -4.4888     5.2401     0.3669 O.3     
  16 C16           -4.6269     6.5744     0.5053 C.ar    
  17 C17           -3.3363     7.1302     0.5827 C.ar    
  18 C18           -2.4116     6.0010     0.4773 C.2     
  19 C19           -3.1862     4.8910     0.3492 C.2     
  20 C20           -3.1753     8.5091     0.7297 C.ar    
  21 C21           -4.2767     9.3164     0.7982 C.ar    
  22 C22           -5.5512     8.7738     0.7225 C.ar    
  23 C23           -5.7308     7.4138     0.5776 C.ar    
  24 H24            2.5361     0.3355     0.1648 H       
  25 H25            4.4292     4.1511    -0.0938 H       
  26 H26            2.2320     5.2442    -0.2558 H       
  27 H27            0.1757     3.8960    -0.2192 H       
  28 H28           -4.1735     2.1547     0.9452 H       
  29 H29           -4.1459     2.3435    -0.8367 H       
  30 H30           -2.6159     0.6272    -1.0047 H       
  31 H31           -2.6478     0.4299     0.7769 H       
  32 H32           -1.3325     6.0411     0.4973 H       
  33 H33           -2.1852     8.9363     0.7895 H       
  34 H34           -4.1537    10.3833     0.9124 H       
  35 H35           -6.4123     9.4232     0.7783 H       
  36 H36           -6.7278     7.0027     0.5200 H       
@<TRIPOS>BOND
   1    1    2 2
   2    1    3 1
   3    1   10 am
   4    3    4 ar
   5    3    8 ar
   6    4    5 ar
   7    4   24 1
   8    5    6 ar
   9    5    9 1
  10    6    7 ar
  11    6   25 1
  12    7    8 ar
  13    7   26 1
  14    8   27 1
  15   10   11 1
  16   10   14 1
  17   11   12 2
  18   12   13 1
  19   12   19 1
  20   13   14 1
  21   13   28 1
  22   13   29 1
  23   14   30 1
  24   14   31 1
  25   15   16 1
  26   15   19 1
  27   16   17 ar
  28   16   23 ar
  29   17   18 1
  30   17   20 ar
  31   18   19 2
  32   18   32 1
  33   20   21 ar
  34   20   33 1
  35   21   22 ar
  36   21   34 1
  37   22   23 ar
  38   22   35 1
  39   23   36 1

#	End of record

