#	Name: ASD01840043
#	Creating user name:	WinNT
#	Creation time:	15. 06. 2019 19:37

#	Modifying user name:	WinNT
#	Modification time:	15. 06. 2019 19:37

#	Program:	/corina/corina34_cracker 3.40 0067  02.08.2006

@<TRIPOS>MOLECULE
ASD01840043
  32   34    0    0    0
SMALL
NO_CHARGES


@<TRIPOS>ATOM
   1 C1             0.2320     1.5321    -0.1065 C.ar    
   2 C2             0.2645     0.2041    -0.4721 C.ar    
   3 N3             1.4156    -0.4437    -0.5235 N.ar    
   4 N4             2.5345     0.1129    -0.2441 N.ar    
   5 C5             2.6235     1.3939     0.1216 C.ar    
   6 C6             1.4567     2.1655     0.2061 C.ar    
   7 S7             4.0238     2.3673     0.5481 S.3     
   8 C8             3.0442     3.7922     0.8345 C.2     
   9 C9             1.7261     3.5311     0.6157 C.2     
  10 C10           -1.0699     2.2888    -0.0476 C.3     
  11 N11            0.7320     4.4831     0.7699 N.pl3   
  12 C12            3.5558     5.0481     1.2403 C.2     
  13 C13            4.9871     5.1844     1.5985 C.ar    
  14 O14            2.8196     6.0165     1.2951 O.2     
  15 C15            5.6469     6.4106     1.4684 C.ar    
  16 C16            6.9815     6.4927     1.8138 C.ar    
  17 N17            7.6315     5.4361     2.2602 N.ar    
  18 C18            7.0477     4.2621     2.3979 C.ar    
  19 C19            5.7143     4.0917     2.0815 C.ar    
  20 C20           -1.0165    -0.5124    -0.8140 C.3     
  21 H21           -1.4304     2.3122     0.9809 H       
  22 H22           -0.9141     3.3080    -0.4012 H       
  23 H23           -1.8070     1.7935    -0.6797 H       
  24 H24           -0.1904     4.2575     0.5723 H       
  25 H25            0.9583     5.3755     1.0755 H       
  26 H26            5.1208     7.2801     1.1031 H       
  27 H27            7.4999     7.4352     1.7165 H       
  28 H28            7.6189     3.4231     2.7671 H       
  29 H29            5.2412     3.1283     2.2015 H       
  30 H30           -1.2156    -0.4114    -1.8809 H       
  31 H31           -0.9210    -1.5682    -0.5605 H       
  32 H32           -1.8392    -0.0758    -0.2479 H       
@<TRIPOS>BOND
   1    1    2 ar
   2    1    6 ar
   3    1   10 1
   4    2    3 ar
   5    2   20 1
   6    3    4 ar
   7    4    5 ar
   8    5    7 1
   9    5    6 ar
  10    6    9 1
  11    7    8 1
  12    8    9 2
  13    8   12 1
  14    9   11 1
  15   10   21 1
  16   10   22 1
  17   10   23 1
  18   11   24 1
  19   11   25 1
  20   12   13 1
  21   12   14 2
  22   13   15 ar
  23   13   19 ar
  24   15   16 ar
  25   15   26 1
  26   16   17 ar
  27   16   27 1
  28   17   18 ar
  29   18   19 ar
  30   18   28 1
  31   19   29 1
  32   20   30 1
  33   20   31 1
  34   20   32 1

#	End of record

