#	Name: ASD01810519
#	Creating user name:	WinNT
#	Creation time:	15. 06. 2019 19:24

#	Modifying user name:	WinNT
#	Modification time:	15. 06. 2019 19:24

#	Program:	/corina/corina34_cracker 3.40 0067  02.08.2006

@<TRIPOS>MOLECULE
ASD01810519
  82   84    0    0    0
SMALL
NO_CHARGES


@<TRIPOS>ATOM
   1 C1             0.0946     1.0934    -0.6371 C.ar    
   2 C2             0.0061    -0.2933    -0.6036 C.ar    
   3 C3            -1.2062    -0.9165    -0.3883 C.ar    
   4 C4            -2.3607    -0.1605    -0.2011 C.ar    
   5 C5            -2.2665     1.2410    -0.2239 C.ar    
   6 C6            -1.0330     1.8624    -0.4426 C.ar    
   7 N7            -3.5669    -0.8099    -0.0086 N.3     
   8 C8            -4.5538    -0.0217     0.7305 C.3     
   9 C9            -4.7971     1.3097     0.0051 C.3     
  10 C10           -3.4735     2.0535    -0.0009 C.2     
  11 C11           -3.3639    -2.1222     0.6195 C.3     
  12 C12           -4.7017    -2.7511     0.9127 C.ar    
  13 C13           -5.3094    -3.5556    -0.0331 C.ar    
  14 C14           -6.5365    -4.1324     0.2358 C.ar    
  15 C15           -7.1558    -3.9051     1.4506 C.ar    
  16 C16           -6.5477    -3.1013     2.3967 C.ar    
  17 C17           -5.3185    -2.5280     2.1295 C.ar    
  18 Cl18           1.4352    -1.2512    -0.8357 Cl      
  19 F19            1.2879     1.6883    -0.8550 F       
  20 O20           -3.4139     3.2533     0.1690 O.2     
  21 C21           -5.2490     1.0507    -1.4091 C.2     
  22 O22           -5.3684    -0.0881    -1.8087 O.2     
  23 C23           -8.2635     6.3354   -10.6713 C.3     
  24 C24           -8.7049     6.0825   -12.0526 C.1     
  25 C25           -9.0569     5.8808   -13.1543 C.1     
  26 C26           -9.4983     5.6280   -14.5356 C.3     
  27 O27           -9.7213     6.8733   -15.1999 O.3     
  28 C28          -10.1339     6.8175   -16.4865 C.2     
  29 N29          -10.3417     5.7513   -17.1585 N.2     
  30 C30          -10.4344     8.0105   -17.3739 C.3     
  31 C31          -10.4614     7.3784   -18.7863 C.3     
  32 O32          -10.7755     6.0030   -18.4804 O.3     
  33 N33           -8.0342     5.0552    -9.9883 N.4     
  34 C34           -9.2819     4.2800    -9.9695 C.3     
  35 C35           -6.9979     4.2978   -10.7027 C.3     
  36 N36           -5.5206     2.0848    -2.2297 N.am    
  37 C37           -5.9599     1.8331    -3.6045 C.3     
  38 C38           -6.1986     3.1665    -4.3158 C.3     
  39 C39           -6.6574     2.9036    -5.7515 C.3     
  40 C40           -6.8962     4.2370    -6.4628 C.3     
  41 C41           -7.3550     3.9742    -7.8986 C.3     
  42 C42           -7.5937     5.3076    -8.6099 C.3     
  43 H43           -1.2598    -1.9950    -0.3652 H       
  44 H44           -0.9655     2.9400    -0.4679 H       
  45 H45           -5.4894    -0.5775     0.7927 H       
  46 H46           -4.1817     0.1755     1.7359 H       
  47 H47           -5.5494     1.8919     0.5371 H       
  48 H48           -2.8005    -2.7653    -0.0565 H       
  49 H49           -2.8092    -1.9980     1.5495 H       
  50 H50           -4.8256    -3.7332    -0.9822 H       
  51 H51           -7.0116    -4.7604    -0.5033 H       
  52 H52           -8.1148    -4.3552     1.6604 H       
  53 H53           -7.0317    -2.9234     3.3457 H       
  54 H54           -4.8434    -1.9000     2.8686 H       
  55 H55           -7.3377     6.9106   -10.6853 H       
  56 H56           -9.0324     6.8974   -10.1413 H       
  57 H57           -8.7293     5.0660   -15.0656 H       
  58 H58          -10.4241     5.0527   -14.5216 H       
  59 H59          -11.4031     8.4438   -17.1251 H       
  60 H60           -9.6442     8.7575   -17.2991 H       
  61 H61          -11.2413     7.8281   -19.4009 H       
  62 H62           -9.4882     7.4613   -19.2703 H       
  63 H63          -10.0509     4.8419    -9.4395 H       
  64 H64           -9.6087     4.0927   -10.9924 H       
  65 H65           -9.1118     3.3300    -9.4628 H       
  66 H66           -6.8278     3.3479   -10.1959 H       
  67 H67           -7.3247     4.1106   -11.7255 H       
  68 H68           -6.0721     4.8730   -10.7166 H       
  69 H69           -5.4251     2.9956    -1.9102 H       
  70 H70           -5.1909     1.2711    -4.1345 H       
  71 H71           -6.8856     1.2579    -3.5905 H       
  72 H72           -6.9676     3.7285    -3.7857 H       
  73 H73           -5.2729     3.7417    -4.3297 H       
  74 H74           -5.8884     2.3417    -6.2816 H       
  75 H75           -7.5832     2.3284    -5.7376 H       
  76 H76           -7.6652     4.7990    -5.9328 H       
  77 H77           -5.9704     4.8123    -6.4768 H       
  78 H78           -6.5860     3.4122    -8.4286 H       
  79 H79           -8.2807     3.3990    -7.8846 H       
  80 H80           -6.6680     5.8828    -8.6238 H       
  81 H81           -8.3627     5.8695    -8.0798 H       
  82 Br82           6.4352    13.7575     8.3457 Br      
@<TRIPOS>BOND
   1    1    2 ar
   2    1   19 1
   3    1    6 ar
   4    2    3 ar
   5    2   18 1
   6    3    4 ar
   7    3   43 1
   8    4    5 ar
   9    4    7 1
  10    5    6 ar
  11    5   10 1
  12    6   44 1
  13    7    8 1
  14    7   11 1
  15    8    9 1
  16    8   45 1
  17    8   46 1
  18    9   10 1
  19    9   21 1
  20    9   47 1
  21   10   20 2
  22   11   12 1
  23   11   48 1
  24   11   49 1
  25   12   13 ar
  26   12   17 ar
  27   13   14 ar
  28   13   50 1
  29   14   15 ar
  30   14   51 1
  31   15   16 ar
  32   15   52 1
  33   16   17 ar
  34   16   53 1
  35   17   54 1
  36   21   36 am
  37   21   22 2
  38   23   24 1
  39   23   33 1
  40   23   55 1
  41   23   56 1
  42   24   25 3
  43   25   26 1
  44   26   27 1
  45   26   57 1
  46   26   58 1
  47   27   28 1
  48   28   29 2
  49   28   30 1
  50   29   32 1
  51   30   31 1
  52   30   59 1
  53   30   60 1
  54   31   32 1
  55   31   61 1
  56   31   62 1
  57   33   42 1
  58   33   34 1
  59   33   35 1
  60   34   63 1
  61   34   64 1
  62   34   65 1
  63   35   66 1
  64   35   67 1
  65   35   68 1
  66   36   37 1
  67   36   69 1
  68   37   38 1
  69   37   70 1
  70   37   71 1
  71   38   39 1
  72   38   72 1
  73   38   73 1
  74   39   40 1
  75   39   74 1
  76   39   75 1
  77   40   41 1
  78   40   76 1
  79   40   77 1
  80   41   42 1
  81   41   78 1
  82   41   79 1
  83   42   80 1
  84   42   81 1

#	End of record

