#	Name: ASD04590721
#	Creating user name:	WinNT
#	Creation time:	15. 06. 2019 20:51

#	Modifying user name:	WinNT
#	Modification time:	15. 06. 2019 20:51

#	Program:	/corina/corina34_cracker 3.40 0067  02.08.2006

@<TRIPOS>MOLECULE
ASD04590721
  35   37    0    0    0
SMALL
NO_CHARGES


@<TRIPOS>ATOM
   1 C1            -0.0159     1.3207     0.0093 C.ar    
   2 N2             0.0021    -0.0041     0.0020 N.ar    
   3 C3             1.1523    -0.6672    -0.0126 C.ar    
   4 C4             2.3572     0.0615    -0.0202 C.ar    
   5 C5             2.2861     1.4531    -0.0121 C.ar    
   6 N6             1.0991     2.0373     0.0025 N.ar    
   7 N7            -1.2340     1.9751     0.0186 N.pl3   
   8 N8             1.1667    -2.0499    -0.0197 N.pl3   
   9 C9             4.0580    -1.4145    -1.1298 C.ar    
  10 C10            3.6660    -0.6331    -0.0360 C.ar    
  11 C11            4.5532    -0.5303     1.0419 C.ar    
  12 C12            5.7581    -1.2078     0.9543 C.ar    
  13 N13            6.0376    -1.9208    -0.1219 N.ar    
  14 N14            5.2291    -2.0191    -1.1129 N.ar    
  15 Cl15           6.9009    -1.1192     2.2581 Cl      
  16 Cl16           3.0041    -1.5917    -2.4979 Cl      
  17 C17           -0.0942    -2.7957    -0.0111 C.3     
  18 C18            0.1130    -4.1886    -0.6312 C.3     
  19 C19           -0.2369    -5.2156     0.4655 C.3     
  20 C20           -1.1816    -4.4446     1.4205 C.3     
  21 C21           -0.5628    -3.0248     1.4407 C.3     
  22 H22            3.1881     2.0470    -0.0172 H       
  23 H23           -2.0588     1.4646     0.0197 H       
  24 H24           -1.2636     2.9446     0.0240 H       
  25 H25            2.0118    -2.5261    -0.0303 H       
  26 H26            4.3064     0.0582     1.9132 H       
  27 H27           -0.8550    -2.2486    -0.5678 H       
  28 H28           -0.5479    -4.3179    -1.4883 H       
  29 H29            1.1517    -4.3098    -0.9384 H       
  30 H30           -0.7495    -6.0752     0.0336 H       
  31 H31            0.6631    -5.5323     0.9927 H       
  32 H32           -2.1959    -4.4182     1.0224 H       
  33 H33           -1.1680    -4.8861     2.4170 H       
  34 H34            0.2845    -2.9877     2.1254 H       
  35 H35           -1.3133    -2.2855     1.7205 H       
@<TRIPOS>BOND
   1    1    2 ar
   2    1    6 ar
   3    1    7 1
   4    2    3 ar
   5    3    4 ar
   6    3    8 1
   7    4    5 ar
   8    4   10 1
   9    5    6 ar
  10    5   22 1
  11    7   23 1
  12    7   24 1
  13    8   17 1
  14    8   25 1
  15    9   10 ar
  16    9   14 ar
  17    9   16 1
  18   10   11 ar
  19   11   12 ar
  20   11   26 1
  21   12   13 ar
  22   12   15 1
  23   13   14 ar
  24   17   18 1
  25   17   21 1
  26   17   27 1
  27   18   19 1
  28   18   28 1
  29   18   29 1
  30   19   20 1
  31   19   30 1
  32   19   31 1
  33   20   21 1
  34   20   32 1
  35   20   33 1
  36   21   34 1
  37   21   35 1

#	End of record

