#	Name: ASD01914765
#	Creating user name:	WinNT
#	Creation time:	15. 06. 2019 20:04

#	Modifying user name:	WinNT
#	Modification time:	15. 06. 2019 20:04

#	Program:	/corina/corina34_cracker 3.40 0067  02.08.2006

@<TRIPOS>MOLECULE
ASD01914765
  39   42    0    0    0
SMALL
NO_CHARGES


@<TRIPOS>ATOM
   1 N1            -0.1255     1.1789     0.7127 N.am    
   2 C2            -0.0031    -0.0132     0.0371 C.2     
   3 C3            -1.1648    -0.5325    -0.6893 C.2     
   4 C4            -2.3066     0.1817    -0.6645 C.2     
   5 N5            -2.3602     1.3677     0.0319 N.am    
   6 C6            -1.2951     1.8401     0.7017 C.2     
   7 C7             1.0915     1.4306     1.2973 C.2     
   8 C8             1.9065     0.4072     0.9698 C.2     
   9 N9             1.2240    -0.4571     0.2057 N.2     
  10 C10            3.3455     0.2598     1.3926 C.3     
  11 Cl11           1.5031     2.8062     2.2730 Cl      
  12 O12           -1.3893     2.8925     1.3033 O.2     
  13 C13           -3.5559     2.0982     0.0468 C.ar    
  14 O14            3.4078    -0.4526     2.6298 O.3     
  15 C15            4.6424    -0.6723     3.1537 C.ar    
  16 C16            4.7766    -1.3576     4.3525 C.ar    
  17 C17            5.7709    -0.2169     2.4877 C.ar    
  18 C18            7.0248    -0.4420     3.0220 C.ar    
  19 C19            7.1556    -1.1209     4.2193 C.ar    
  20 C20            6.0327    -1.5801     4.8827 C.ar    
  21 C21           -4.4995     1.8670     1.0389 C.ar    
  22 C22           -5.6774     2.5880     1.0518 C.ar    
  23 C23           -5.9179     3.5406     0.0759 C.ar    
  24 C24           -4.9783     3.7724    -0.9146 C.ar    
  25 C25           -3.7963     3.0582    -0.9272 C.ar    
  26 F26           -7.0709     4.2446     0.0900 F       
  27 H27           -1.1070    -1.4647    -1.2315 H       
  28 H28           -3.1792    -0.1758    -1.1909 H       
  29 H29            3.8942    -0.2907     0.6284 H       
  30 H30            3.7900     1.2469     1.5189 H       
  31 H31            3.8998    -1.7164     4.8710 H       
  32 H32            5.6693     0.3129     1.5520 H       
  33 H33            7.9037    -0.0876     2.5039 H       
  34 H34            8.1368    -1.2962     4.6353 H       
  35 H35            6.1375    -2.1099     5.8179 H       
  36 H36           -4.3126     1.1236     1.7997 H       
  37 H37           -6.4116     2.4084     1.8232 H       
  38 H38           -5.1678     4.5155    -1.6750 H       
  39 H39           -3.0636     3.2395    -1.6996 H       
@<TRIPOS>BOND
   1    1    2 1
   2    1    7 1
   3    1    6 am
   4    2    3 1
   5    2    9 2
   6    3    4 2
   7    3   27 1
   8    4    5 1
   9    4   28 1
  10    5    6 am
  11    5   13 1
  12    6   12 2
  13    7    8 2
  14    7   11 1
  15    8    9 1
  16    8   10 1
  17   10   14 1
  18   10   29 1
  19   10   30 1
  20   13   21 ar
  21   13   25 ar
  22   14   15 1
  23   15   16 ar
  24   15   17 ar
  25   16   20 ar
  26   16   31 1
  27   17   18 ar
  28   17   32 1
  29   18   19 ar
  30   18   33 1
  31   19   20 ar
  32   19   34 1
  33   20   35 1
  34   21   22 ar
  35   21   36 1
  36   22   23 ar
  37   22   37 1
  38   23   24 ar
  39   23   26 1
  40   24   25 ar
  41   24   38 1
  42   25   39 1

#	End of record

