#	Name: ASD01150661
#	Creating user name:	WinNT
#	Creation time:	15. 06. 2019 19:04

#	Modifying user name:	WinNT
#	Modification time:	15. 06. 2019 19:04

#	Program:	/corina/corina34_cracker 3.40 0067  02.08.2006

@<TRIPOS>MOLECULE
ASD01150661
  35   37    0    0    0
SMALL
NO_CHARGES


@<TRIPOS>ATOM
   1 C1            -0.0169     1.3920     0.0097 C.ar    
   2 C2             0.0021    -0.0041     0.0020 C.ar    
   3 C3            -2.3950    -0.0371     0.0252 C.ar    
   4 C4            -2.4291     1.3436     0.0441 C.ar    
   5 C5            -1.2462     2.0686     0.0309 C.ar    
   6 N6            -1.2786     3.4634     0.0393 N.am    
   7 C7            -1.9508     4.1055     1.0111 C.2     
   8 N8            -2.0011     5.4503     1.0478 N.am    
   9 C9            -1.3717     6.1758     0.1004 C.2     
  10 C10           -0.6371     5.4802    -0.9618 C.2     
  11 N11           -0.6062     4.1758    -0.9608 N.2     
  12 O12           -1.4132     7.3919     0.1264 O.2     
  13 C13           -2.7401     6.1263     2.1170 C.3     
  14 O14           -2.5224     3.4615     1.8695 O.2     
  15 C15           -1.8184     6.3802     3.2819 C.ar    
  16 Br16           0.2586     6.4600    -2.3086 Br      
  17 C17           -1.1837    -0.7081     0.0100 C.ar    
  18 C18           -1.0990     7.5588     3.3493 C.ar    
  19 C19           -0.2538     7.7930     4.4173 C.ar    
  20 C20           -0.1275     6.8465     5.4200 C.ar    
  21 C21           -0.8485     5.6664     5.3514 C.ar    
  22 C22           -1.6971     5.4368     4.2851 C.ar    
  23 F23            0.6988     7.0742     6.4643 F       
  24 C24            1.2109     2.1290     0.0019 C.1     
  25 N25            2.1848     2.7137    -0.0042 N.1     
  26 H26            0.9442    -0.5320    -0.0105 H       
  27 H27           -3.3185    -0.5970     0.0359 H       
  28 H28           -3.3778     1.8597     0.0555 H       
  29 H29           -3.1277     7.0754     1.7468 H       
  30 H30           -3.5690     5.4965     2.4401 H       
  31 H31           -1.1676    -1.7879     0.0041 H       
  32 H32           -1.1974     8.2968     2.5669 H       
  33 H33            0.3084     8.7137     4.4696 H       
  34 H34           -0.7508     4.9275     6.1329 H       
  35 H35           -2.2596     4.5164     4.2313 H       
@<TRIPOS>BOND
   1    1    2 ar
   2    1   24 1
   3    1    5 ar
   4    2   17 ar
   5    2   26 1
   6    3    4 ar
   7    3   17 ar
   8    3   27 1
   9    4    5 ar
  10    4   28 1
  11    5    6 1
  12    6    7 am
  13    6   11 1
  14    7    8 am
  15    7   14 2
  16    8    9 am
  17    8   13 1
  18    9   10 1
  19    9   12 2
  20   10   11 2
  21   10   16 1
  22   13   15 1
  23   13   29 1
  24   13   30 1
  25   15   18 ar
  26   15   22 ar
  27   17   31 1
  28   18   19 ar
  29   18   32 1
  30   19   20 ar
  31   19   33 1
  32   20   21 ar
  33   20   23 1
  34   21   22 ar
  35   21   34 1
  36   22   35 1
  37   24   25 3

#	End of record

