#	Name: ASD03092891
#	Creating user name:	WinNT
#	Creation time:	15. 06. 2019 20:33

#	Modifying user name:	WinNT
#	Modification time:	15. 06. 2019 20:33

#	Program:	/corina/corina34_cracker 3.40 0067  02.08.2006

@<TRIPOS>MOLECULE
ASD03092891
  44   47    0    0    0
SMALL
NO_CHARGES


@<TRIPOS>ATOM
   1 C1            -0.0184     1.5028     0.0103 C.3     
   2 C2             0.0021    -0.0041     0.0020 C.ar    
   3 C3             0.0056    -0.6835    -1.2097 C.ar    
   4 C4             0.0235    -2.0480    -1.2420 C.ar    
   5 C5             0.0390    -2.7681    -0.0426 C.ar    
   6 C6             0.0587    -4.1896     0.2869 C.2     
   7 N7             0.0661    -4.2971     1.5848 N.2     
   8 N8             0.0526    -3.0278     2.1722 N.pl3   
   9 H9             0.0548    -2.8488     3.1256 H       
  10 C10            0.0359    -2.0775     1.1849 C.ar    
  11 C11            0.0226    -0.6851     1.1863 C.ar    
  12 C12            0.0687    -5.3296    -0.6987 C.3     
  13 C13            1.3264    -6.1772    -0.4880 C.3     
  14 C14            1.3009    -7.3671    -1.4500 C.3     
  15 N15            0.0986    -8.1730    -1.2019 N.3     
  16 C16           -1.1223    -7.3937    -1.4438 C.3     
  17 C17           -1.1690    -6.2046    -0.4816 C.3     
  18 C18            0.1094    -9.3288    -1.9657 C.ar    
  19 C19           -0.9461   -10.2396    -1.8889 C.ar    
  20 C20           -0.8887   -11.3770    -2.6703 C.ar    
  21 N21            0.1579   -11.5658    -3.4615 N.ar    
  22 C22            1.1386   -10.6868    -3.5115 C.ar    
  23 N23            1.1226    -9.5859    -2.7879 N.ar    
  24 C24           -2.0022   -12.3914    -2.6236 C.3     
  25 F25           -2.9682   -12.0679    -3.5825 F       
  26 F26           -1.4858   -13.6634    -2.8925 F       
  27 F27           -2.5863   -12.3844    -1.3524 F       
  28 H28            1.0042     1.8801     0.0026 H       
  29 H29           -0.5455     1.8639    -0.8728 H       
  30 H30           -0.5286     1.8543     0.9071 H       
  31 H31           -0.0064    -0.1267    -2.1351 H       
  32 H32            0.0254    -2.5688    -2.1881 H       
  33 H33            0.0241    -0.1447     2.1214 H       
  34 H34            0.0612    -4.9334    -1.7141 H       
  35 H35            2.2108    -5.5706    -0.6829 H       
  36 H36            1.3527    -6.5403     0.5394 H       
  37 H37            1.2886    -7.0033    -2.4775 H       
  38 H38            2.1881    -7.9804    -1.2927 H       
  39 H39           -1.1232    -7.0297    -2.4713 H       
  40 H40           -1.9950    -8.0263    -1.2820 H       
  41 H41           -1.1820    -6.5681     0.5459 H       
  42 H42           -2.0675    -5.6175    -0.6720 H       
  43 H43           -1.7862   -10.0594    -1.2345 H       
  44 H44            1.9765   -10.8719    -4.1672 H       
@<TRIPOS>BOND
   1    1    2 1
   2    1   28 1
   3    1   29 1
   4    1   30 1
   5    2   11 ar
   6    2    3 ar
   7    3    4 ar
   8    3   31 1
   9    4    5 ar
  10    4   32 1
  11    5   10 ar
  12    5    6 1
  13    6    7 2
  14    6   12 1
  15    7    8 1
  16    8    9 1
  17    8   10 1
  18   10   11 ar
  19   11   33 1
  20   12   17 1
  21   12   13 1
  22   12   34 1
  23   13   14 1
  24   13   35 1
  25   13   36 1
  26   14   15 1
  27   14   37 1
  28   14   38 1
  29   15   16 1
  30   15   18 1
  31   16   17 1
  32   16   39 1
  33   16   40 1
  34   17   41 1
  35   17   42 1
  36   18   23 ar
  37   18   19 ar
  38   19   20 ar
  39   19   43 1
  40   20   21 ar
  41   20   24 1
  42   21   22 ar
  43   22   23 ar
  44   22   44 1
  45   24   25 1
  46   24   26 1
  47   24   27 1

#	End of record

