#	Name: ASD01940417
#	Creating user name:	WinNT
#	Creation time:	15. 06. 2019 20:12

#	Modifying user name:	WinNT
#	Modification time:	15. 06. 2019 20:12

#	Program:	/corina/corina34_cracker 3.40 0067  02.08.2006

@<TRIPOS>MOLECULE
ASD01940417
  49   51    0    0    0
SMALL
NO_CHARGES


@<TRIPOS>ATOM
   1 C1            -0.4999     0.2659    -0.9602 C.ar    
   2 C2            -0.8310    -1.0839    -1.0667 C.ar    
   3 C3             0.1412    -1.9985    -1.3633 C.ar    
   4 C4             1.4572    -1.5896    -1.5586 C.ar    
   5 C5             1.8010    -0.2494    -1.4552 C.ar    
   6 C6             0.8269     0.6859    -1.1566 C.ar    
   7 O7             1.1226     2.0022    -1.0477 O.3     
   8 C8             0.1750     2.9056    -0.7571 C.2     
   9 N9            -1.1108     2.5741    -0.5568 N.am    
  10 C10           -1.5131     1.2858    -0.6364 C.2     
  11 C11           -2.0876     3.6196    -0.2420 C.3     
  12 C12           -2.6832     4.1518    -1.5199 C.ar    
  13 C13           -2.2220     5.3414    -2.0545 C.ar    
  14 C14           -2.7655     5.8331    -3.2264 C.ar    
  15 C15           -3.7723     5.1379    -3.8690 C.ar    
  16 C16           -4.2382     3.9437    -3.3370 C.ar    
  17 C17           -3.6860     3.4480    -2.1602 C.ar    
  18 O18           -2.6751     0.9790    -0.4517 O.2     
  19 O19            0.4938     4.0749    -0.6709 O.2     
  20 O20            2.4119    -2.5093    -1.8521 O.3     
  21 C21            3.3576    -2.7285    -0.9182 C.2     
  22 O22            3.3810    -2.0546     0.0926 O.2     
  23 N23            4.2779    -3.6953    -1.1050 N.am    
  24 C24            5.3064    -3.9336    -0.0893 C.3     
  25 C25            4.2497    -4.5078    -2.3237 C.3     
  26 N26           -5.2568     3.2379    -3.9849 N.am    
  27 S27           -5.3284     3.2193    -5.6393 S.o2    
  28 O28           -6.4115     2.3478    -5.9335 O.2     
  29 O29           -5.3729     4.5921    -6.0036 O.2     
  30 C30           -3.7554     2.4754    -6.1521 C.3     
  31 F31           -4.1327     2.2833    -1.6412 F       
  32 H32           -1.8507    -1.4059    -0.9153 H       
  33 H33           -0.1136    -3.0448    -1.4462 H       
  34 H34            2.8239     0.0619    -1.6071 H       
  35 H35           -2.8785     3.2021     0.3812 H       
  36 H36           -1.5927     4.4299     0.2933 H       
  37 H37           -1.4356     5.8875    -1.5547 H       
  38 H38           -2.4031     6.7624    -3.6405 H       
  39 H39           -4.1965     5.5237    -4.7842 H       
  40 H40            4.9446    -4.6699     0.6284 H       
  41 H41            6.2109    -4.3077    -0.5690 H       
  42 H42            5.5290    -3.0006     0.4283 H       
  43 H43            4.8596    -4.0322    -3.0917 H       
  44 H44            4.6459    -5.5001    -2.1080 H       
  45 H45            3.2227    -4.5958    -2.6780 H       
  46 H46           -5.9215     2.7592    -3.4653 H       
  47 H47           -3.6762     1.4707    -5.7369 H       
  48 H48           -3.7158     2.4231    -7.2401 H       
  49 H49           -2.9290     3.0854    -5.7873 H       
@<TRIPOS>BOND
   1    1    2 ar
   2    1    6 ar
   3    1   10 1
   4    2    3 ar
   5    2   32 1
   6    3    4 ar
   7    3   33 1
   8    4    5 ar
   9    4   20 1
  10    5    6 ar
  11    5   34 1
  12    6    7 1
  13    7    8 1
  14    8    9 am
  15    8   19 2
  16    9   10 am
  17    9   11 1
  18   10   18 2
  19   11   12 1
  20   11   35 1
  21   11   36 1
  22   12   13 ar
  23   12   17 ar
  24   13   14 ar
  25   13   37 1
  26   14   15 ar
  27   14   38 1
  28   15   16 ar
  29   15   39 1
  30   16   17 ar
  31   16   26 1
  32   17   31 1
  33   20   21 1
  34   21   22 2
  35   21   23 am
  36   23   24 1
  37   23   25 1
  38   24   40 1
  39   24   41 1
  40   24   42 1
  41   25   43 1
  42   25   44 1
  43   25   45 1
  44   26   27 am
  45   26   46 1
  46   27   28 2
  47   27   29 2
  48   27   30 1
  49   30   47 1
  50   30   48 1
  51   30   49 1

#	End of record

