#	Name: ASD01840498
#	Creating user name:	WinNT
#	Creation time:	15. 06. 2019 19:37

#	Modifying user name:	WinNT
#	Modification time:	15. 06. 2019 19:37

#	Program:	/corina/corina34_cracker 3.40 0067  02.08.2006

@<TRIPOS>MOLECULE
ASD01840498
  45   49    0    0    0
SMALL
NO_CHARGES


@<TRIPOS>ATOM
   1 C1             0.4678     1.4676     0.0284 C.3     
   2 C2             0.2321    -0.0208     0.0106 C.ar    
   3 N3             0.2313    -0.6750    -1.1367 N.ar    
   4 N4             0.0364    -1.9383    -1.2094 N.ar    
   5 C5            -0.1813    -2.6917    -0.1277 C.ar    
   6 S6            -0.4693    -4.4181     0.0131 S.3     
   7 C7            -0.6154    -4.3453     1.7605 C.ar    
   8 C8            -0.8625    -5.3641     2.6993 C.ar    
   9 N9            -1.0323    -6.6749     2.2655 N.pl3   
  10 C10           -1.2899    -7.7405     3.2373 C.3     
  11 C11           -2.7324    -8.2765     3.2012 C.3     
  12 N12           -2.2364    -9.2618     2.2151 N.3     
  13 C13           -0.8633    -9.1378     2.7522 C.3     
  14 C14           -2.7563   -10.5216     2.4671 C.ar    
  15 C15           -2.3997   -11.5886     1.6455 C.ar    
  16 C16           -2.9151   -12.8320     1.8971 C.ar    
  17 C17           -3.7908   -12.9863     2.9825 C.ar    
  18 C18           -4.1044   -11.8726     3.7639 C.ar    
  19 N19           -3.5819   -10.6953     3.4900 N.ar    
  20 C20           -4.3550   -14.2675     3.2841 C.1     
  21 N21           -4.8027   -15.2838     3.5234 N.1     
  22 N22           -0.9342    -5.0871     3.9871 N.ar    
  23 C23           -0.7795    -3.8566     4.4465 C.ar    
  24 C24           -0.5377    -2.8126     3.6060 C.ar    
  25 C25           -0.4491    -3.0450     2.2148 C.ar    
  26 C26           -0.1989    -2.0904     1.1286 C.ar    
  27 C27            0.0228    -0.6998     1.1934 C.ar    
  28 C28            0.0260     0.0246     2.5149 C.3     
  29 H29            1.5359     1.6652     0.1191 H       
  30 H30            0.0946     1.9057    -0.8972 H       
  31 H31           -0.0564     1.9084     0.8763 H       
  32 H32           -0.9801    -6.8833     1.3196 H       
  33 H33           -0.9356    -7.4967     4.2389 H       
  34 H34           -3.0591    -8.7219     4.1409 H       
  35 H35           -3.4535    -7.5695     2.7910 H       
  36 H36           -0.0910    -9.1188     1.9833 H       
  37 H37           -0.6433    -9.8350     3.5606 H       
  38 H38           -1.7232   -11.4365     0.8175 H       
  39 H39           -2.6538   -13.6746     1.2741 H       
  40 H40           -4.7775   -11.9783     4.6019 H       
  41 H41           -0.8467    -3.6759     5.5091 H       
  42 H42           -0.4145    -1.8145     3.9997 H       
  43 H43           -0.9983     0.2642     2.8004 H       
  44 H44            0.4762    -0.6116     3.2769 H       
  45 H45            0.6024     0.9452     2.4233 H       
@<TRIPOS>BOND
   1    1    2 1
   2    1   29 1
   3    1   30 1
   4    1   31 1
   5    2   27 ar
   6    2    3 ar
   7    3    4 ar
   8    4    5 ar
   9    5   26 ar
  10    5    6 1
  11    6    7 1
  12    7   25 ar
  13    7    8 ar
  14    8    9 1
  15    8   22 ar
  16    9   10 1
  17    9   32 1
  18   10   13 1
  19   10   11 1
  20   10   33 1
  21   11   12 1
  22   11   34 1
  23   11   35 1
  24   12   13 1
  25   12   14 1
  26   13   36 1
  27   13   37 1
  28   14   19 ar
  29   14   15 ar
  30   15   16 ar
  31   15   38 1
  32   16   17 ar
  33   16   39 1
  34   17   18 ar
  35   17   20 1
  36   18   19 ar
  37   18   40 1
  38   20   21 3
  39   22   23 ar
  40   23   24 ar
  41   23   41 1
  42   24   25 ar
  43   24   42 1
  44   25   26 1
  45   26   27 ar
  46   27   28 1
  47   28   43 1
  48   28   44 1
  49   28   45 1

#	End of record

