#	Name: ASD02198843
#	Creating user name:	WinNT
#	Creation time:	15. 06. 2019 20:20

#	Modifying user name:	WinNT
#	Modification time:	15. 06. 2019 20:20

#	Program:	/corina/corina34_cracker 3.40 0067  02.08.2006

@<TRIPOS>MOLECULE
ASD02198843
  53   57    0    0    0
SMALL
NO_CHARGES


@<TRIPOS>ATOM
   1 F1             2.2514    -1.7110     2.4727 F       
   2 C2            -0.0435     1.5033    -0.1144 C.2     
   3 C3            -0.0737     0.1636     0.0983 C.2     
   4 N4             1.0703    -0.5383     0.2610 N.pl3   
   5 N5             2.2350    -0.0039     0.2272 N.2     
   6 C6             2.4069     1.2855     0.0285 C.2     
   7 C7             1.2215     2.1369    -0.1600 C.2     
   8 C8             0.9783    -1.9176     0.4777 C.ar    
   9 C9             1.5786    -2.4882     1.5960 C.ar    
  10 C10            1.4865    -3.8507     1.8088 C.ar    
  11 C11            0.7951    -4.6487     0.9069 C.ar    
  12 C12            0.1960    -4.0782    -0.2094 C.ar    
  13 C13            0.2827    -2.7174    -0.4205 C.ar    
  14 C14            3.7640     1.8674    -0.0039 C.2     
  15 N15            4.3065     2.6068    -1.0171 N.pl3   
  16 N16            5.6085     2.9579    -0.6392 N.2     
  17 C17            5.8519     2.4586     0.5464 C.2     
  18 C18            4.7193     1.7720     0.9842 C.2     
  19 C19            3.6739     2.9514    -2.2183 C.ar    
  20 C20            2.9114     2.0108    -2.8978 C.ar    
  21 C21            2.2889     2.3537    -4.0822 C.ar    
  22 C22            2.4244     3.6320    -4.5913 C.ar    
  23 C23            3.1837     4.5711    -3.9171 C.ar    
  24 C24            3.8035     4.2363    -2.7294 C.ar    
  25 O25            1.3248     3.3399    -0.3484 O.2     
  26 N26            0.7022    -6.0285     1.1221 N.am    
  27 C27            0.0034    -6.9851     0.2502 C.3     
  28 C28            0.2150    -8.3417     0.9498 C.3     
  29 O29            1.0025    -8.0108     2.1301 O.3     
  30 C30            1.2401    -6.6944     2.1532 C.2     
  31 O31            1.8782    -6.1510     3.0330 O.2     
  32 C32            7.1406     2.6059     1.3136 C.3     
  33 C33            3.3296     5.9630    -4.4760 C.3     
  34 F34            2.6125     6.0623    -5.6732 F       
  35 F35            2.8301     6.8901    -3.5550 F       
  36 F36            4.6815     6.2287    -4.7187 F       
  37 H37           -0.9547     2.0672    -0.2489 H       
  38 H38           -1.0237    -0.3486     0.1384 H       
  39 H39            1.9523    -4.2946     2.6762 H       
  40 H40           -0.3414    -4.6998    -0.9103 H       
  41 H41           -0.1836    -2.2749    -1.2884 H       
  42 H42            4.6130     1.2531     1.9254 H       
  43 H43            2.8054     1.0120    -2.5008 H       
  44 H44            1.6959     1.6224    -4.6113 H       
  45 H45            1.9367     3.8977    -5.5175 H       
  46 H46            4.3960     4.9702    -2.2032 H       
  47 H47           -1.0584    -6.7457     0.1925 H       
  48 H48            0.4497    -6.9934    -0.7442 H       
  49 H49           -0.7420    -8.7762     1.2384 H       
  50 H50            0.7656    -9.0239     0.3020 H       
  51 H51            7.0936     3.5007     1.9343 H       
  52 H52            7.2882     1.7315     1.9473 H       
  53 H53            7.9720     2.6922     0.6141 H       
@<TRIPOS>BOND
   1    1    9 1
   2    2    3 2
   3    2    7 1
   4    2   37 1
   5    3    4 1
   6    3   38 1
   7    4    5 1
   8    4    8 1
   9    5    6 2
  10    6    7 1
  11    6   14 1
  12    7   25 2
  13    8    9 ar
  14    8   13 ar
  15    9   10 ar
  16   10   11 ar
  17   10   39 1
  18   11   12 ar
  19   11   26 1
  20   12   13 ar
  21   12   40 1
  22   13   41 1
  23   14   15 1
  24   14   18 2
  25   15   16 1
  26   15   19 1
  27   16   17 2
  28   17   18 1
  29   17   32 1
  30   18   42 1
  31   19   20 ar
  32   19   24 ar
  33   20   21 ar
  34   20   43 1
  35   21   22 ar
  36   21   44 1
  37   22   23 ar
  38   22   45 1
  39   23   24 ar
  40   23   33 1
  41   24   46 1
  42   26   27 1
  43   26   30 am
  44   27   28 1
  45   27   47 1
  46   27   48 1
  47   28   29 1
  48   28   49 1
  49   28   50 1
  50   29   30 1
  51   30   31 2
  52   32   51 1
  53   32   52 1
  54   32   53 1
  55   33   34 1
  56   33   35 1
  57   33   36 1

#	End of record

