#	Name: ASD07300239
#	Creating user name:	WinNT
#	Creation time:	15. 06. 2019 21:09

#	Modifying user name:	WinNT
#	Modification time:	15. 06. 2019 21:09

#	Program:	/corina/corina34_cracker 3.40 0067  02.08.2006

@<TRIPOS>MOLECULE
ASD07300239
  44   44    0    0    0
SMALL
NO_CHARGES


@<TRIPOS>ATOM
   1 N1            -0.0169     1.3925     0.0097 N.pl3   
   2 C2             0.0021    -0.0041     0.0020 C.ar    
   3 C3             1.2135    -0.6838    -0.0132 C.ar    
   4 C4             1.2286    -2.0647    -0.0208 C.ar    
   5 C5             0.0396    -2.7708    -0.0138 C.ar    
   6 C6            -1.1681    -2.0973     0.0014 C.ar    
   7 C7            -1.1904    -0.7165     0.0153 C.ar    
   8 N8             0.0597    -4.2507    -0.0229 N.pl3   
   9 O9             1.1226    -4.8452    -0.0367 O.2     
  10 O10           -0.9868    -4.8740    -0.0167 O.2     
  11 H11            0.8165     1.8889     0.0044 H       
  12 H12           -0.8634     1.8660     0.0163 H       
  13 H13            2.1424    -0.1329    -0.0194 H       
  14 H14            2.1700    -2.5937    -0.0326 H       
  15 H15           -2.0949    -2.6518     0.0065 H       
  16 H16           -2.1338    -0.1912     0.0316 H       
  17 C17           10.4274    10.8211     7.5170 C.2     
  18 N18           10.5044     9.5176     7.8508 N.am    
  19 O19           11.4335    11.4307     7.2123 O.2     
  20 O20            9.2350    11.4465     7.5158 O.3     
  21 C21           11.9231     7.6306     8.3951 C.ar    
  22 C22           11.7208     8.8345     7.7298 C.ar    
  23 C23           12.7449     9.3504     6.9415 C.ar    
  24 C24           13.9304     8.6378     6.8525 C.ar    
  25 C25           14.0568     7.4479     7.5434 C.ar    
  26 N26           13.0673     6.9848     8.2829 N.ar    
  27 Cl27          10.6598     6.9748     9.3890 Cl      
  28 C28            9.2274    12.8506     7.1460 C.3     
  29 C29            9.7750    13.0069     5.7259 C.3     
  30 C30            7.7948    13.3849     7.2018 C.3     
  31 C31           10.1043    13.6394     8.1204 C.3     
  32 H32            9.7172     9.0526     8.1748 H       
  33 H33           12.6190    10.2830     6.4117 H       
  34 H34           14.7462     9.0083     6.2495 H       
  35 H35           14.9785     6.8889     7.4769 H       
  36 H36            9.1502    12.4449     5.0316 H       
  37 H37            9.7692    14.0609     5.4482 H       
  38 H38           10.7955    12.6262     5.6861 H       
  39 H39            7.4047    13.2736     8.2135 H       
  40 H40            7.7891    14.4390     6.9242 H       
  41 H41            7.1700    12.8229     6.5076 H       
  42 H42           11.1249    13.2588     8.0806 H       
  43 H43           10.0986    14.6935     7.8428 H       
  44 H44            9.7142    13.5281     9.1321 H       
@<TRIPOS>BOND
   1    1    2 1
   2    1   11 1
   3    1   12 1
   4    2    3 ar
   5    2    7 ar
   6    3    4 ar
   7    3   13 1
   8    4    5 ar
   9    4   14 1
  10    5    6 ar
  11    5    8 1
  12    6    7 ar
  13    6   15 1
  14    7   16 1
  15    8    9 2
  16    8   10 2
  17   17   18 am
  18   17   19 2
  19   17   20 1
  20   18   22 1
  21   18   32 1
  22   20   28 1
  23   21   22 ar
  24   21   26 ar
  25   21   27 1
  26   22   23 ar
  27   23   24 ar
  28   23   33 1
  29   24   25 ar
  30   24   34 1
  31   25   26 ar
  32   25   35 1
  33   28   29 1
  34   28   31 1
  35   28   30 1
  36   29   36 1
  37   29   37 1
  38   29   38 1
  39   30   39 1
  40   30   40 1
  41   30   41 1
  42   31   42 1
  43   31   43 1
  44   31   44 1

#	End of record

