#	Name: ASD02440005
#	Creating user name:	WinNT
#	Creation time:	15. 06. 2019 20:21

#	Modifying user name:	WinNT
#	Modification time:	15. 06. 2019 20:21

#	Program:	/corina/corina34_cracker 3.40 0067  02.08.2006

@<TRIPOS>MOLECULE
ASD02440005
  43   44    0    0    0
SMALL
NO_CHARGES


@<TRIPOS>ATOM
   1 C1            -0.0168     1.3841     0.0097 C.ar    
   2 C2             0.0021    -0.0041     0.0020 C.ar    
   3 C3            -1.1794    -0.7127     0.0095 C.ar    
   4 C4            -2.4024    -0.0328     0.0248 C.ar    
   5 C5            -2.4204     1.3673     0.0325 C.ar    
   6 C6            -1.2316     2.0691     0.0307 C.ar    
   7 O7            -1.2451     3.4290     0.0386 O.3     
   8 O8             1.1513     2.0771     0.0022 O.3     
   9 C9            -3.6643    -0.7860     0.0323 C.2     
  10 C10           -3.6447    -2.1368     0.0244 C.2     
  11 C11           -4.8621    -2.8634     0.0317 C.2     
  12 O12           -5.9243    -2.2706     0.0450 O.2     
  13 O13           -4.8426    -4.2126     0.0238 O.3     
  14 C14           -6.1062    -4.8798     0.0318 C.3     
  15 C15           -5.9808    -6.2185    -0.6983 C.3     
  16 C16           -7.3338    -6.9328    -0.6897 C.3     
  17 C17           -7.7713    -7.1791     0.7556 C.3     
  18 C18           -7.8967    -5.8405     1.4857 C.3     
  19 C19           -6.5437    -5.1261     1.4771 C.3     
  20 O20           -5.5715    -5.9393     2.1371 O.3     
  21 O21           -8.8689    -5.0272     0.8258 O.3     
  22 O22           -8.3060    -6.1196    -1.3496 O.3     
  23 C23           -7.2103    -8.2514    -1.4088 C.2     
  24 O24           -6.1369    -8.8014    -1.4819 O.2     
  25 O25           -8.2926    -8.8148    -1.9682 O.3     
  26 H26            0.9454    -0.5298    -0.0102 H       
  27 H27           -1.1617    -1.7926     0.0032 H       
  28 H28           -3.3616     1.8967     0.0443 H       
  29 H29           -1.2447     3.8172     0.9243 H       
  30 H30            1.4811     2.2825    -0.8833 H       
  31 H31           -4.6073    -0.2596     0.0442 H       
  32 H32           -2.7018    -2.6631     0.0126 H       
  33 H33           -6.8478    -4.2595    -0.4715 H       
  34 H34           -5.6691    -6.0430    -1.7279 H       
  35 H35           -5.2392    -6.8388    -0.1949 H       
  36 H36           -8.7352    -7.6881     0.7617 H       
  37 H37           -7.0297    -7.7995     1.2590 H       
  38 H38           -8.2084    -6.0159     2.5154 H       
  39 H39           -6.6331    -4.1724     1.9973 H       
  40 H40           -5.7844    -6.1363     3.0596 H       
  41 H41           -9.7526    -5.4186     0.7936 H       
  42 H42           -9.1897    -6.5110    -1.3817 H       
  43 H43           -8.1639    -9.6608    -2.4186 H       
@<TRIPOS>BOND
   1    1    2 ar
   2    1    8 1
   3    1    6 ar
   4    2    3 ar
   5    2   26 1
   6    3    4 ar
   7    3   27 1
   8    4    5 ar
   9    4    9 1
  10    5    6 ar
  11    5   28 1
  12    6    7 1
  13    7   29 1
  14    8   30 1
  15    9   10 2
  16    9   31 1
  17   10   11 1
  18   10   32 1
  19   11   12 2
  20   11   13 1
  21   13   14 1
  22   14   15 1
  23   14   19 1
  24   14   33 1
  25   15   16 1
  26   15   34 1
  27   15   35 1
  28   16   17 1
  29   16   22 1
  30   16   23 1
  31   17   18 1
  32   17   36 1
  33   17   37 1
  34   18   19 1
  35   18   21 1
  36   18   38 1
  37   19   20 1
  38   19   39 1
  39   20   40 1
  40   21   41 1
  41   22   42 1
  42   23   24 2
  43   23   25 1
  44   25   43 1

#	End of record

