#	Name: ASD01208109
#	Creating user name:	WinNT
#	Creation time:	15. 06. 2019 19:09

#	Modifying user name:	WinNT
#	Modification time:	15. 06. 2019 19:09

#	Program:	/corina/corina34_cracker 3.40 0067  02.08.2006

@<TRIPOS>MOLECULE
ASD01208109
  60   63    0    0    0
SMALL
NO_CHARGES


@<TRIPOS>ATOM
   1 C1            -0.0650     1.4580    -0.0022 C.ar    
   2 C2             0.0532     0.0762    -0.0342 C.ar    
   3 C3            -1.0810    -0.7225     0.0105 C.ar    
   4 C4            -2.3362    -0.1423     0.0878 C.ar    
   5 C5            -2.4595     1.2474     0.1207 C.ar    
   6 C6            -1.3163     2.0463     0.0808 C.ar    
   7 C7            -3.7971     1.8710     0.2032 C.2     
   8 C8            -4.0555     3.2225     0.2420 C.2     
   9 N9            -4.9893     1.2049     0.2480 N.pl3   
  10 C10           -6.0048     2.1289     0.3212 C.2     
  11 C11           -5.4396     3.3857     0.3184 C.2     
  12 O12            1.0487     2.2355    -0.0468 O.3     
  13 C13            0.8508     3.6476    -0.1405 C.3     
  14 C14            2.0791     4.2931    -0.7851 C.3     
  15 O15            3.2102     4.1259     0.0722 O.3     
  16 C16            0.6457     4.2279     1.2603 C.3     
  17 O17           -0.9598    -2.0757    -0.0220 O.3     
  18 C18           -1.4251    -2.7308    -1.1152 C.ar    
  19 C19           -1.4247    -4.1217    -1.1472 C.ar    
  20 N20           -1.8860    -2.0472    -2.1528 N.ar    
  21 C21           -2.3392    -2.6886    -3.2167 C.ar    
  22 C22           -2.3332    -4.0702    -3.2474 C.ar    
  23 N23           -1.8785    -4.7556    -2.2120 N.ar    
  24 C24           -7.4422     1.8287     0.3867 C.2     
  25 N25           -8.3590     2.7495     0.4548 N.2     
  26 C26           -9.6776     2.0898     0.5204 C.3     
  27 C27           -9.2924     0.6307     0.8651 C.3     
  28 O28           -7.9354     0.5716     0.3759 O.3     
  29 S29           -2.9392    -4.9205    -4.6667 S.o2    
  30 C30           -1.4845    -5.1162    -5.7326 C.3     
  31 O31           -3.3635    -6.1807    -4.1656 O.2     
  32 O32           -3.8658    -4.0141    -5.2492 O.2     
  33 C33          -10.5405     2.7025     1.6254 C.3     
  34 C34           -9.3477     0.3902     2.3751 C.3     
  35 H35            1.0305    -0.3794    -0.0945 H       
  36 H36           -3.2183    -0.7644     0.1222 H       
  37 H37           -1.4074     3.1222     0.1060 H       
  38 H38           -3.3205     4.0134     0.2177 H       
  39 H39           -5.1006     0.2415     0.2306 H       
  40 H40           -5.9704     4.3250     0.3670 H       
  41 H41           -0.0291     3.8515    -0.7506 H       
  42 H42            2.2777     3.8173    -1.7455 H       
  43 H43            1.8929     5.3561    -0.9378 H       
  44 H44            4.0265     4.5117    -0.2740 H       
  45 H45            1.5256     4.0240     1.8704 H       
  46 H46            0.4948     5.3050     1.1888 H       
  47 H47           -0.2294     3.7681     1.7195 H       
  48 H48           -1.0533    -4.6818    -0.3018 H       
  49 H49           -2.7150    -2.1319    -4.0625 H       
  50 H50          -10.1865     2.1409    -0.4422 H       
  51 H51           -9.9284    -0.0777     0.3343 H       
  52 H52           -0.7237    -5.6931    -5.2066 H       
  53 H53           -1.7705    -5.6390    -6.6453 H       
  54 H54           -1.0851    -4.1343    -5.9862 H       
  55 H55          -10.7107     3.7575     1.4106 H       
  56 H56          -11.4971     2.1819     1.6701 H       
  57 H57          -10.0284     2.6046     2.5826 H       
  58 H58          -10.3586     0.5792     2.7363 H       
  59 H59           -9.0726    -0.6426     2.5889 H       
  60 H60           -8.6514     1.0629     2.8759 H       
@<TRIPOS>BOND
   1    1    2 ar
   2    1   12 1
   3    1    6 ar
   4    2    3 ar
   5    2   35 1
   6    3    4 ar
   7    3   17 1
   8    4    5 ar
   9    4   36 1
  10    5    6 ar
  11    5    7 1
  12    6   37 1
  13    7    8 2
  14    7    9 1
  15    8   11 1
  16    8   38 1
  17    9   10 1
  18    9   39 1
  19   10   11 2
  20   10   24 1
  21   11   40 1
  22   12   13 1
  23   13   14 1
  24   13   16 1
  25   13   41 1
  26   14   15 1
  27   14   42 1
  28   14   43 1
  29   15   44 1
  30   16   45 1
  31   16   46 1
  32   16   47 1
  33   17   18 1
  34   18   19 ar
  35   18   20 ar
  36   19   23 ar
  37   19   48 1
  38   20   21 ar
  39   21   22 ar
  40   21   49 1
  41   22   23 ar
  42   22   29 1
  43   24   25 2
  44   24   28 1
  45   25   26 1
  46   26   27 1
  47   26   33 1
  48   26   50 1
  49   27   28 1
  50   27   34 1
  51   27   51 1
  52   29   30 1
  53   29   31 2
  54   29   32 2
  55   30   52 1
  56   30   53 1
  57   30   54 1
  58   33   55 1
  59   33   56 1
  60   33   57 1
  61   34   58 1
  62   34   59 1
  63   34   60 1

#	End of record

