#	Name: ASD00111054
#	Creating user name:	WinNT
#	Creation time:	15. 06. 2019 18:30

#	Modifying user name:	WinNT
#	Modification time:	15. 06. 2019 18:30

#	Program:	/corina/corina34_cracker 3.40 0067  02.08.2006

@<TRIPOS>MOLECULE
ASD00111054
  27   28    0    0    0
SMALL
NO_CHARGES


@<TRIPOS>ATOM
   1 C1            -0.0167     1.3813     0.0096 C.ar    
   2 C2             0.0021    -0.0041     0.0020 C.ar    
   3 C3            -1.1880    -0.7133     0.0089 C.ar    
   4 C4            -2.3899    -0.0307     0.0232 C.ar    
   5 C5            -2.4079     1.3429     0.0316 C.ar    
   6 C6            -1.2244     2.0574     0.0306 C.ar    
   7 C7            -3.6933    -0.8025     0.0286 C.3     
   8 C8            -4.3564    -0.6172     1.3971 C.3     
   9 N9            -5.1349     0.6100     1.4329 N.3     
  10 C10           -4.3884     1.8573     1.4141 C.3     
  11 C11           -3.7315     2.0793     0.0480 C.3     
  12 C12           -3.4926     3.5744    -0.1725 C.3     
  13 Cl13           1.4749     2.2694     0.0002 Cl      
  14 F14            1.1812    -0.6634    -0.0126 F       
  15 H15           -1.1768    -1.7932     0.0028 H       
  16 H16           -1.2421     3.1372     0.0369 H       
  17 H17           -4.3500    -0.4200    -0.7527 H       
  18 H18           -3.4945    -1.8604    -0.1431 H       
  19 H19           -5.0132    -1.4643     1.5949 H       
  20 H20           -3.5854    -0.5752     2.1664 H       
  21 H21           -5.8498     0.6057     0.7209 H       
  22 H22           -5.0667     2.6842     1.6243 H       
  23 H23           -3.6158     1.8243     2.1822 H       
  24 H24           -4.3783     1.6902    -0.7384 H       
  25 H25           -2.8372     3.9569     0.6100 H       
  26 H26           -3.0253     3.7281    -1.1452 H       
  27 H27           -4.4451     4.1033    -0.1394 H       
@<TRIPOS>BOND
   1    1    2 ar
   2    1   13 1
   3    1    6 ar
   4    2    3 ar
   5    2   14 1
   6    3    4 ar
   7    3   15 1
   8    4    5 ar
   9    4    7 1
  10    5    6 ar
  11    5   11 1
  12    6   16 1
  13    7    8 1
  14    7   17 1
  15    7   18 1
  16    8    9 1
  17    8   19 1
  18    8   20 1
  19    9   10 1
  20    9   21 1
  21   10   11 1
  22   10   22 1
  23   10   23 1
  24   11   12 1
  25   11   24 1
  26   12   25 1
  27   12   26 1
  28   12   27 1

#	End of record

