#	Name: ASD01810445
#	Creating user name:	WinNT
#	Creation time:	15. 06. 2019 19:24

#	Modifying user name:	WinNT
#	Modification time:	15. 06. 2019 19:24

#	Program:	/corina/corina34_cracker 3.40 0067  02.08.2006

@<TRIPOS>MOLECULE
ASD01810445
  46   47    0    0    0
SMALL
NO_CHARGES


@<TRIPOS>ATOM
   1 N1            -0.0175     1.4416     0.0100 N.am    
   2 C2             0.0021    -0.0041     0.0020 C.3     
   3 C3             0.0045    -0.5316     1.4580 C.3     
   4 C4             1.3054    -0.2715     2.0935 C.3     
   5 C5             1.6549     1.2076     2.2271 C.3     
   6 C6             2.2899     1.6892     0.9459 C.3     
   7 C7             1.2134     2.2561     0.0026 C.3     
   8 C8            -1.2090     2.0715     0.0189 C.2     
   9 O9            -2.2380     1.4252     0.0202 O.2     
  10 O10           -1.2591     3.4169     0.0265 O.3     
  11 C11            1.2978    -0.8875     3.4688 C.ar    
  12 C12            2.2254    -1.8619     3.7919 C.ar    
  13 C13            2.2242    -2.4301     5.0490 C.ar    
  14 C14            1.2842    -2.0193     5.9963 C.ar    
  15 C15            0.3513    -1.0351     5.6635 C.ar    
  16 C16            0.3669    -0.4720     4.4043 C.ar    
  17 C17            1.2767    -2.6050     7.3030 C.1     
  18 N18            1.2708    -3.0697     8.3396 N.1     
  19 C19           -2.5765     4.0274     0.0359 C.3     
  20 C20           -3.3367     3.5807     1.2863 C.3     
  21 C21           -2.4326     5.5506     0.0435 C.3     
  22 C22           -3.3483     3.5943    -1.2121 C.3     
  23 H23           -0.8810    -0.3762    -0.5174 H       
  24 H24            0.8983    -0.3521    -0.5116 H       
  25 H25           -0.7804    -0.0305     2.0246 H       
  26 H26           -0.1865    -1.6047     1.4533 H       
  27 H27            2.0820    -0.7588     1.5041 H       
  28 H28            0.7476     1.7797     2.4208 H       
  29 H29            2.3537     1.3430     3.0526 H       
  30 H30            3.0175     2.4682     1.1737 H       
  31 H31            2.7959     0.8562     0.4579 H       
  32 H32            1.6118     2.2862    -1.0115 H       
  33 H33            0.9680     3.2711     0.3149 H       
  34 H34            2.9519    -2.1787     3.0582 H       
  35 H35            2.9484    -3.1911     5.2997 H       
  36 H36           -0.3785    -0.7129     6.3915 H       
  37 H37           -0.3515     0.2922     4.1469 H       
  38 H38           -2.7868     3.8893     2.1754 H       
  39 H39           -4.3256     4.0390     1.2934 H       
  40 H40           -3.4392     2.4955     1.2809 H       
  41 H41           -1.8911     5.8689    -0.8472 H       
  42 H42           -3.4216     6.0089     0.0506 H       
  43 H43           -1.8828     5.8592     0.9327 H       
  44 H44           -3.4508     2.5091    -1.2175 H       
  45 H45           -4.3372     4.0526    -1.2050 H       
  46 H46           -2.8067     3.9125    -2.1029 H       
@<TRIPOS>BOND
   1    1    2 1
   2    1    7 1
   3    1    8 am
   4    2    3 1
   5    2   23 1
   6    2   24 1
   7    3    4 1
   8    3   25 1
   9    3   26 1
  10    4    5 1
  11    4   11 1
  12    4   27 1
  13    5    6 1
  14    5   28 1
  15    5   29 1
  16    6    7 1
  17    6   30 1
  18    6   31 1
  19    7   32 1
  20    7   33 1
  21    8    9 2
  22    8   10 1
  23   10   19 1
  24   11   12 ar
  25   11   16 ar
  26   12   13 ar
  27   12   34 1
  28   13   14 ar
  29   13   35 1
  30   14   15 ar
  31   14   17 1
  32   15   16 ar
  33   15   36 1
  34   16   37 1
  35   17   18 3
  36   19   20 1
  37   19   22 1
  38   19   21 1
  39   20   38 1
  40   20   39 1
  41   20   40 1
  42   21   41 1
  43   21   42 1
  44   21   43 1
  45   22   44 1
  46   22   45 1
  47   22   46 1

#	End of record

