#	Name: ASD09116072
#	Creating user name:	WinNT
#	Creation time:	15. 06. 2019 21:20

#	Modifying user name:	WinNT
#	Modification time:	15. 06. 2019 21:20

#	Program:	/corina/corina34_cracker 3.40 0067  02.08.2006

@<TRIPOS>MOLECULE
ASD09116072
  65   69    0    0    0
SMALL
NO_CHARGES


@<TRIPOS>ATOM
   1 C1            -0.0010     1.3934     0.0365 C.ar    
   2 N2             0.0662    -0.0000     0.1059 N.pl3   
   3 N3             0.9872    -0.8314    -0.5516 N.2     
   4 C4             0.6987    -2.0652    -0.2130 C.2     
   5 N5            -0.3497    -2.0554     0.6186 N.2     
   6 C6            -0.7399    -0.8158     0.8249 C.2     
   7 N7            -1.7923    -0.4177     1.6273 N.pl3   
   8 N8             1.3757    -3.2041    -0.6494 N.pl3   
   9 C9             1.1396     2.1345    -0.2808 C.ar    
  10 N10           -1.1477     2.0150     0.2660 N.ar    
  11 N11           -1.2589     3.2957     0.2200 N.ar    
  12 C12           -0.2330     4.0667    -0.0569 C.ar    
  13 C13            1.0093     3.5065    -0.3305 C.ar    
  14 C14            0.9020    -4.4752    -0.3040 C.ar    
  15 C15           -0.4571    -4.6797    -0.1046 C.ar    
  16 C16           -0.9235    -5.9341     0.2362 C.ar    
  17 C17           -0.0350    -6.9896     0.3793 C.ar    
  18 C18            1.3227    -6.7863     0.1803 C.ar    
  19 C19            1.7902    -5.5339    -0.1661 C.ar    
  20 O20           -0.4951    -8.2244     0.7154 O.3     
  21 C21            0.4755    -9.2650     0.8459 C.3     
  22 C22           -0.2251   -10.5712     1.2254 C.3     
  23 C23           -0.3319     5.5688    -0.0801 C.3     
  24 C24           -0.5234     6.1052    -1.4621 C.3     
  25 C25            0.6876     6.1998    -2.3697 C.3     
  26 C26            1.0740     4.8054    -2.8955 C.3     
  27 C27            2.3854     4.3759    -2.1804 C.3     
  28 C28            2.1566     4.4131    -0.6748 C.3     
  29 N29           -1.1025   -10.9937     0.1256 N.3     
  30 C30           -1.6101   -12.3598     0.3496 C.3     
  31 C31           -3.1512   -12.2849     0.3235 C.3     
  32 C32           -3.4244   -10.9847    -0.4775 C.3     
  33 C33           -2.2562   -10.0797    -0.0129 C.3     
  34 H34           -2.3191    -1.0805     2.1005 H       
  35 H35           -2.0041     0.5246     1.7172 H       
  36 H36            2.1746    -3.1152    -1.1922 H       
  37 H37            2.0855     1.6524    -0.4789 H       
  38 H38           -1.1490    -3.8579    -0.2156 H       
  39 H39           -1.9803    -6.0932     0.3917 H       
  40 H40            2.0138    -7.6086     0.2920 H       
  41 H41            2.8473    -5.3758    -0.3214 H       
  42 H42            0.9983    -9.3952    -0.1017 H       
  43 H43            1.1922    -8.9982     1.6225 H       
  44 H44            0.5216   -11.3432     1.4116 H       
  45 H45           -0.8198   -10.4162     2.1256 H       
  46 H46           -1.1751     5.8768     0.5381 H       
  47 H47            0.5825     5.9894     0.3383 H       
  48 H48           -1.2628     5.4786    -1.9609 H       
  49 H49           -0.9494     7.1045    -1.3733 H       
  50 H50            0.4567     6.8516    -3.2123 H       
  51 H51            1.5246     6.6194    -1.8116 H       
  52 H52            0.2804     4.0929    -2.6706 H       
  53 H53            1.2378     4.8491    -3.9722 H       
  54 H54            2.6528     3.3639    -2.4846 H       
  55 H55            3.1884     5.0634    -2.4461 H       
  56 H56            1.9211     5.4318    -0.3667 H       
  57 H57            3.0558     4.0737    -0.1606 H       
  58 H58           -1.2575   -13.0209    -0.4421 H       
  59 H59           -1.2730   -12.7263     1.3192 H       
  60 H60           -3.5704   -13.1497    -0.1908 H       
  61 H61           -3.5504   -12.2057     1.3347 H       
  62 H62           -3.3726   -11.1690    -1.5506 H       
  63 H63           -4.3865   -10.5520    -0.2032 H       
  64 H64           -2.4919    -9.6181     0.9460 H       
  65 H65           -2.0472    -9.3155    -0.7616 H       
@<TRIPOS>BOND
   1    1    2 1
   2    1    9 ar
   3    1   10 ar
   4    2    3 1
   5    2    6 1
   6    3    4 2
   7    4    5 1
   8    4    8 1
   9    5    6 2
  10    6    7 1
  11    7   34 1
  12    7   35 1
  13    8   14 1
  14    8   36 1
  15    9   13 ar
  16    9   37 1
  17   10   11 ar
  18   11   12 ar
  19   12   13 ar
  20   12   23 1
  21   13   28 1
  22   14   15 ar
  23   14   19 ar
  24   15   16 ar
  25   15   38 1
  26   16   17 ar
  27   16   39 1
  28   17   18 ar
  29   17   20 1
  30   18   19 ar
  31   18   40 1
  32   19   41 1
  33   20   21 1
  34   21   22 1
  35   21   42 1
  36   21   43 1
  37   22   29 1
  38   22   44 1
  39   22   45 1
  40   23   24 1
  41   23   46 1
  42   23   47 1
  43   24   25 1
  44   24   48 1
  45   24   49 1
  46   25   26 1
  47   25   50 1
  48   25   51 1
  49   26   27 1
  50   26   52 1
  51   26   53 1
  52   27   28 1
  53   27   54 1
  54   27   55 1
  55   28   56 1
  56   28   57 1
  57   29   30 1
  58   29   33 1
  59   30   31 1
  60   30   58 1
  61   30   59 1
  62   31   32 1
  63   31   60 1
  64   31   61 1
  65   32   33 1
  66   32   62 1
  67   32   63 1
  68   33   64 1
  69   33   65 1

#	End of record

