#	Name: ASD01410202
#	Creating user name:	WinNT
#	Creation time:	15. 06. 2019 19:16

#	Modifying user name:	WinNT
#	Modification time:	15. 06. 2019 19:16

#	Program:	/corina/corina34_cracker 3.40 0067  02.08.2006

@<TRIPOS>MOLECULE
ASD01410202
  45   48    0    0    0
SMALL
NO_CHARGES


@<TRIPOS>ATOM
   1 C1            -0.0171     1.4073     0.0098 C.ar    
   2 C2             0.0021    -0.0041     0.0020 C.ar    
   3 C3            -1.2007    -0.7210     0.0096 C.ar    
   4 C4            -2.3958    -0.0623     0.0246 C.ar    
   5 C5            -2.4389     1.3344     0.0325 C.ar    
   6 C6            -1.2434     2.0789     0.0302 C.ar    
   7 N7             1.2891     1.8347    -0.0004 N.pl3   
   8 C8             2.1167     0.7357    -0.0142 C.2     
   9 C9             1.3633    -0.3937    -0.0131 C.2     
  10 C10           -3.7390     2.0302     0.0487 C.2     
  11 O11           -3.7781     3.2447     0.0556 O.2     
  12 O12           -4.8839     1.3192     0.0558 O.3     
  13 C13            5.7143     1.3270    -0.5309 C.2     
  14 O14            5.7022     0.3722     0.4117 O.3     
  15 C15            4.4452     0.0299     0.7265 C.2     
  16 C16            3.5942     0.7781    -0.0281 C.2     
  17 C17            4.4492     1.6357    -0.8591 C.2     
  18 C18            1.2704    -2.6276     1.1383 C.3     
  19 C19            1.3738    -4.0922     0.6650 C.3     
  20 C20            1.4440    -4.0536    -0.8717 C.3     
  21 C21            1.3807    -2.5669    -1.2785 C.3     
  22 C22            1.8827    -1.8084    -0.0249 C.3     
  23 C23            1.7284     3.2323     0.0029 C.3     
  24 C24           -1.2846     3.5534     0.0385 C.2     
  25 O25           -1.3097     4.2333    -1.1247 O.3     
  26 O26           -1.2960     4.1549     1.0940 O.2     
  27 H27           -1.1825    -1.8009     0.0033 H       
  28 H28           -3.3171    -0.6259     0.0300 H       
  29 H29           -5.7113     1.8195     0.0664 H       
  30 H30            6.5994     1.7783    -0.9544 H       
  31 H31            4.1565    -0.7133     1.4550 H       
  32 H32            4.1261     2.3665    -1.5857 H       
  33 H33            0.2279    -2.3495     1.2934 H       
  34 H34            1.8454    -2.4806     2.0525 H       
  35 H35            2.2759    -4.5522     1.0685 H       
  36 H36            0.4942    -4.6509     0.9847 H       
  37 H37            2.3801    -4.4949    -1.2139 H       
  38 H38            0.5985    -4.5936    -1.2977 H       
  39 H39            2.0364    -2.3757    -2.1281 H       
  40 H40            0.3561    -2.2791    -1.5138 H       
  41 H41            2.9716    -1.8189     0.0228 H       
  42 H42            1.8476     3.5733     1.0313 H       
  43 H43            2.6812     3.3149    -0.5200 H       
  44 H44            0.9832     3.8486    -0.5002 H       
  45 H45           -1.3364     5.1983    -1.0686 H       
@<TRIPOS>BOND
   1    1    2 ar
   2    1    7 1
   3    1    6 ar
   4    2    3 ar
   5    2    9 1
   6    3    4 ar
   7    3   27 1
   8    4    5 ar
   9    4   28 1
  10    5    6 ar
  11    5   10 1
  12    6   24 1
  13    7    8 1
  14    7   23 1
  15    8    9 2
  16    8   16 1
  17    9   22 1
  18   10   11 2
  19   10   12 1
  20   12   29 1
  21   13   14 1
  22   13   17 2
  23   13   30 1
  24   14   15 1
  25   15   16 2
  26   15   31 1
  27   16   17 1
  28   17   32 1
  29   18   19 1
  30   18   22 1
  31   18   33 1
  32   18   34 1
  33   19   20 1
  34   19   35 1
  35   19   36 1
  36   20   21 1
  37   20   37 1
  38   20   38 1
  39   21   22 1
  40   21   39 1
  41   21   40 1
  42   22   41 1
  43   23   42 1
  44   23   43 1
  45   23   44 1
  46   24   25 1
  47   24   26 2
  48   25   45 1

#	End of record

