#	Name: ASD00480001
#	Creating user name:	WinNT
#	Creation time:	15. 06. 2019 18:36

#	Modifying user name:	WinNT
#	Modification time:	15. 06. 2019 18:36

#	Program:	/corina/corina34_cracker 3.40 0067  02.08.2006

@<TRIPOS>MOLECULE
ASD00480001
  34   37    0    0    0
SMALL
NO_CHARGES


@<TRIPOS>ATOM
   1 C1            -0.0170     1.4007     0.0097 C.ar    
   2 C2             0.0021    -0.0041     0.0020 C.ar    
   3 N3            -1.3114    -0.4002     0.0129 N.pl3   
   4 C4            -2.0781     0.7268     0.0265 C.2     
   5 N5            -1.3166     1.7823     0.0295 N.2     
   6 C6             1.2129     2.0810     0.0017 C.ar    
   7 N7             2.3323     1.3651    -0.0129 N.ar    
   8 C8             2.2998     0.0448    -0.0196 C.ar    
   9 N9             1.1723    -0.6342    -0.0129 N.ar    
  10 N10            1.2570     3.4641     0.0082 N.pl3   
  11 C11           -1.8004    -1.7812     0.0096 C.3     
  12 O12           -3.1319    -1.8315     0.5651 O.3     
  13 C13           -4.0297    -2.2207    -0.4595 C.3     
  14 C14           -3.1901    -3.1257    -1.3999 C.3     
  15 C15           -1.8862    -2.3070    -1.4485 C.3     
  16 C16           -5.2852    -2.9571    -0.0412 C.3     
  17 O17           -3.8968    -3.1665    -2.6447 O.3     
  18 P18           -5.4382    -3.6989    -2.5948 P.3     
  19 O19           -6.0954    -3.1124    -1.2312 O.3     
  20 O20           -6.2495    -3.1548    -3.8746 O.3     
  21 O21           -5.4614    -5.1785    -2.5715 O.2     
  22 O22           -1.9929    -1.2268    -2.3780 O.3     
  23 H23           -3.1579     0.7417     0.0367 H       
  24 H24            3.2334    -0.4980    -0.0318 H       
  25 H25            0.4329     3.9756     0.0185 H       
  26 H26            2.1120     3.9221     0.0025 H       
  27 H27           -1.1311    -2.4124     0.5942 H       
  28 H28           -4.3282    -1.3314    -1.0147 H       
  29 H29           -3.0318    -4.1200    -0.9823 H       
  30 H30           -1.0333    -2.9428    -1.6862 H       
  31 H31           -5.0259    -3.9355     0.3632 H       
  32 H32           -5.8269    -2.3760     0.7051 H       
  33 H33           -7.1740    -3.4371    -3.9033 H       
  34 H34           -1.1956    -0.6834    -2.4427 H       
@<TRIPOS>BOND
   1    1    2 ar
   2    1    6 ar
   3    1    5 1
   4    2    3 1
   5    2    9 ar
   6    3    4 1
   7    3   11 1
   8    4    5 2
   9    4   23 1
  10    6    7 ar
  11    6   10 1
  12    7    8 ar
  13    8    9 ar
  14    8   24 1
  15   10   25 1
  16   10   26 1
  17   11   12 1
  18   11   15 1
  19   11   27 1
  20   12   13 1
  21   13   14 1
  22   13   16 1
  23   13   28 1
  24   14   15 1
  25   14   17 1
  26   14   29 1
  27   15   22 1
  28   15   30 1
  29   16   19 1
  30   16   31 1
  31   16   32 1
  32   17   18 1
  33   18   19 1
  34   18   20 1
  35   18   21 2
  36   20   33 1
  37   22   34 1

#	End of record

