#	Name: ASD05430516
#	Creating user name:	WinNT
#	Creation time:	15. 06. 2019 21:00

#	Modifying user name:	WinNT
#	Modification time:	15. 06. 2019 21:00

#	Program:	/corina/corina34_cracker 3.40 0067  02.08.2006

@<TRIPOS>MOLECULE
ASD05430516
  43   44    0    0    0
SMALL
NO_CHARGES


@<TRIPOS>ATOM
   1 C1             0.2444     0.9441    -0.8690 C.ar    
   2 C2             0.1691    -0.4472    -0.8057 C.ar    
   3 C3            -1.0349    -1.0680    -0.4972 C.ar    
   4 C4            -2.1603    -0.3125    -0.2523 C.ar    
   5 C5            -2.0925     1.0838    -0.3135 C.ar    
   6 C6            -0.8787     1.7089    -0.6185 C.ar    
   7 C7            -4.6039     0.2294    -1.3338 C.3     
   8 C8            -4.4775     1.5343    -0.5906 C.2     
   9 C9            -3.2930     1.8924    -0.0527 C.2     
  10 C10           -5.6155    -4.5117    -1.1992 C.3     
  11 O11           -5.6503    -3.2584    -0.4668 O.3     
  12 C12           -5.1819    -2.1705    -1.0982 C.2     
  13 C13           -5.1861    -0.8344    -0.4010 C.3     
  14 O14            1.4243     1.5480    -1.1716 O.3     
  15 C15            1.4287     2.9762    -1.2190 C.3     
  16 N16            1.3102    -1.2206    -1.0543 N.pl3   
  17 C17            2.1462    -1.1075    -2.1192 C.2     
  18 C18            1.7979    -2.2307    -0.2659 C.2     
  19 C19            2.9035    -2.7010    -0.8741 C.2     
  20 N20            3.0926    -1.9986    -2.0010 N.2     
  21 C21            3.7794    -3.8203    -0.3729 C.3     
  22 C22           -5.6146     2.3943    -0.4553 C.1     
  23 N23           -6.5166     3.0765    -0.3480 N.1     
  24 O24           -4.7568    -2.2623    -2.2255 O.2     
  25 H25           -1.0887    -2.1456    -0.4497 H       
  26 H26           -3.0951    -0.7978    -0.0134 H       
  27 H27           -0.8218     2.7863    -0.6668 H       
  28 H28           -5.2642     0.3619    -2.1908 H       
  29 H29           -3.6202    -0.0889    -1.6789 H       
  30 H30           -3.2265     2.7728     0.5694 H       
  31 H31           -4.5854    -4.7484    -1.4655 H       
  32 H32           -6.0219    -5.3082    -0.5759 H       
  33 H33           -6.2132    -4.4193    -2.1061 H       
  34 H34           -4.5811    -0.8948     0.5037 H       
  35 H35           -6.2089    -0.5657    -0.1369 H       
  36 H36            0.7226     3.3167    -1.9764 H       
  37 H37            1.1376     3.3729    -0.2464 H       
  38 H38            2.4291     3.3283    -1.4704 H       
  39 H39            2.0444    -0.3994    -2.9283 H       
  40 H40            1.3762    -2.5819     0.6643 H       
  41 H41            3.4177    -4.7695    -0.7682 H       
  42 H42            4.8046    -3.6556    -0.7045 H       
  43 H43            3.7493    -3.8452     0.7164 H       
@<TRIPOS>BOND
   1    1    2 ar
   2    1   14 1
   3    1    6 ar
   4    2    3 ar
   5    2   16 1
   6    3    4 ar
   7    3   25 1
   8    4    5 ar
   9    4   26 1
  10    5    6 ar
  11    5    9 1
  12    6   27 1
  13    7    8 1
  14    7   13 1
  15    7   28 1
  16    7   29 1
  17    8    9 2
  18    8   22 1
  19    9   30 1
  20   10   11 1
  21   10   31 1
  22   10   32 1
  23   10   33 1
  24   11   12 1
  25   12   13 1
  26   12   24 2
  27   13   34 1
  28   13   35 1
  29   14   15 1
  30   15   36 1
  31   15   37 1
  32   15   38 1
  33   16   17 1
  34   16   18 1
  35   17   20 2
  36   17   39 1
  37   18   19 2
  38   18   40 1
  39   19   20 1
  40   19   21 1
  41   21   41 1
  42   21   42 1
  43   21   43 1
  44   22   23 3

#	End of record

