#	Name: ASD01231020
#	Creating user name:	WinNT
#	Creation time:	15. 06. 2019 19:15

#	Modifying user name:	WinNT
#	Modification time:	15. 06. 2019 19:15

#	Program:	/corina/corina34_cracker 3.40 0067  02.08.2006

@<TRIPOS>MOLECULE
ASD01231020
  35   37    0    0    0
SMALL
NO_CHARGES


@<TRIPOS>ATOM
   1 C1            -0.0184     1.5050     0.0103 C.2     
   2 C2             0.0021    -0.0041     0.0020 C.3     
   3 C3             1.4873    -0.3905    -0.0142 C.3     
   4 C4             2.2619     0.9059    -0.0147 C.ar    
   5 C5             3.6119     1.1326    -0.0263 C.ar    
   6 C6             4.1051     2.4377    -0.0240 C.ar    
   7 C7             3.2191     3.5174    -0.0098 C.ar    
   8 C8             1.8737     3.2961     0.0023 C.ar    
   9 C9             1.3720     1.9825    -0.0004 C.ar    
  10 O10           -1.0103     2.2031     0.0190 O.2     
  11 C11           -0.6739    -0.5502     1.2613 C.3     
  12 C12           -0.6979    -0.5367    -1.2499 C.3     
  13 C13            6.1361     3.5651    -0.9624 C.ar    
  14 C14            5.5660     2.6780    -0.0362 C.ar    
  15 C15            6.4007     2.0265     0.8738 C.ar    
  16 C16            7.7608     2.2855     0.8222 C.ar    
  17 C17            8.2489     3.1722    -0.1187 C.ar    
  18 N18            7.4422     3.7774    -0.9697 N.ar    
  19 N19            5.3267     4.2185    -1.8790 N.pl3   
  20 H20            1.7325    -0.9729     0.8739 H       
  21 H21            1.7154    -0.9633    -0.9131 H       
  22 H22            4.2976     0.2982    -0.0370 H       
  23 H23            3.5998     4.5280    -0.0080 H       
  24 H24            1.1910     4.1328     0.0141 H       
  25 H25           -1.7154    -0.2296     1.2827 H       
  26 H26           -0.6290    -1.6393     1.2545 H       
  27 H27           -0.1587    -0.1708     2.1438 H       
  28 H28           -0.1996    -0.1478    -2.1379 H       
  29 H29           -0.6530    -1.6258    -1.2557 H       
  30 H30           -1.7396    -0.2160    -1.2480 H       
  31 H31            5.9959     1.3377     1.6005 H       
  32 H32            8.4341     1.7985     1.5120 H       
  33 H33            9.3093     3.3734    -0.1582 H       
  34 H34            4.3694     4.0620    -1.8788 H       
  35 H35            5.7177     4.8322    -2.5204 H       
@<TRIPOS>BOND
   1    1    2 1
   2    1    9 1
   3    1   10 2
   4    2    3 1
   5    2   11 1
   6    2   12 1
   7    3    4 1
   8    3   20 1
   9    3   21 1
  10    4    5 ar
  11    4    9 ar
  12    5    6 ar
  13    5   22 1
  14    6    7 ar
  15    6   14 1
  16    7    8 ar
  17    7   23 1
  18    8    9 ar
  19    8   24 1
  20   11   25 1
  21   11   26 1
  22   11   27 1
  23   12   28 1
  24   12   29 1
  25   12   30 1
  26   13   14 ar
  27   13   18 ar
  28   13   19 1
  29   14   15 ar
  30   15   16 ar
  31   15   31 1
  32   16   17 ar
  33   16   32 1
  34   17   18 ar
  35   17   33 1
  36   19   34 1
  37   19   35 1

#	End of record

