#	Name: ASD01916903
#	Creating user name:	WinNT
#	Creation time:	15. 06. 2019 20:08

#	Modifying user name:	WinNT
#	Modification time:	15. 06. 2019 20:08

#	Program:	/corina/corina34_cracker 3.40 0067  02.08.2006

@<TRIPOS>MOLECULE
ASD01916903
  58   62    0    0    0
SMALL
NO_CHARGES


@<TRIPOS>ATOM
   1 C1            -0.0167     1.3082     0.0934 C.2     
   2 N2            -0.0000     0.0191    -0.1695 N.2     
   3 N3            -1.3362    -0.4129    -0.1796 N.pl3   
   4 C4            -2.0928     0.6774     0.0860 C.2     
   5 N5            -1.2846     1.7027     0.2528 N.2     
   6 C6             1.1783     2.1816     0.2019 C.ar    
   7 C7             1.0298     3.5375     0.4860 C.ar    
   8 C8             2.4530     1.6475     0.0256 C.ar    
   9 C9             3.5609     2.4643     0.1281 C.ar    
  10 C10            3.4074     3.8107     0.4051 C.ar    
  11 C11           -1.8162    -1.7744    -0.4288 C.3     
  12 C12           -1.8528    -2.5395     0.8690 C.2     
  13 N13           -2.2648    -3.8227     0.8834 N.am    
  14 O14           -1.5116    -2.0006     1.9006 O.2     
  15 C15           -2.3082    -4.5876     2.1389 C.3     
  16 C16           -3.6957    -5.2241     2.2734 C.3     
  17 N17           -3.9943    -6.0003     1.0625 N.3     
  18 C18           -4.0556    -5.1353    -0.1233 C.3     
  19 C19           -2.6887    -4.4933    -0.3550 C.3     
  20 C20           -5.1664    -6.7210     1.2118 C.ar    
  21 N21           -5.5900    -7.4811     0.2127 N.ar    
  22 C22           -6.7060    -8.1826     0.3229 C.ar    
  23 C23           -7.4335    -8.1151     1.5007 C.ar    
  24 C24           -6.9618    -7.3101     2.5257 C.ar    
  25 N25           -5.8354    -6.6386     2.3525 N.ar    
  26 C26           -3.5695     0.7099     0.1781 C.ar    
  27 C27            2.1446     4.3452     0.5862 C.ar    
  28 C28           -4.2533     1.9179     0.0406 C.ar    
  29 C29           -5.6302     1.9415     0.1269 C.ar    
  30 C30           -6.3324     0.7705     0.3495 C.ar    
  31 C31           -5.6600    -0.4307     0.4867 C.ar    
  32 C32           -4.2836    -0.4682     0.3971 C.ar    
  33 C33           -7.8362     0.8036     0.4432 C.3     
  34 H34            0.0442     3.9559     0.6272 H       
  35 H35            2.5740     0.5963    -0.1904 H       
  36 H36            4.5495     2.0513    -0.0080 H       
  37 H37            4.2771     4.4462     0.4848 H       
  38 H38           -2.8185    -1.7339    -0.8551 H       
  39 H39           -1.1445    -2.2744    -1.1265 H       
  40 H40           -1.5477    -5.3681     2.1186 H       
  41 H41           -2.1287    -3.9194     2.9812 H       
  42 H42           -3.7107    -5.8835     3.1411 H       
  43 H43           -4.4443    -4.4416     2.3977 H       
  44 H44           -4.3316    -5.7305    -0.9937 H       
  45 H45           -4.7992    -4.3541     0.0344 H       
  46 H46           -2.7586    -3.7645    -1.1625 H       
  47 H47           -1.9619    -5.2631    -0.6147 H       
  48 H48           -7.0464    -8.8001    -0.4952 H       
  49 H49           -8.3483    -8.6772     1.6171 H       
  50 H50           -7.5052    -7.2352     3.4560 H       
  51 H51            2.0303     5.3971     0.8023 H       
  52 H52           -3.7062     2.8328    -0.1328 H       
  53 H53           -6.1609     2.8762     0.0210 H       
  54 H54           -6.2137    -1.3415     0.6603 H       
  55 H55           -3.7597    -1.4066     0.5041 H       
  56 H56           -8.2653     0.6588    -0.5482 H       
  57 H57           -8.1764     0.0080     1.1061 H       
  58 H58           -8.1544     1.7678     0.8396 H       
@<TRIPOS>BOND
   1    1    2 2
   2    1    6 1
   3    1    5 1
   4    2    3 1
   5    3    4 1
   6    3   11 1
   7    4    5 2
   8    4   26 1
   9    6    7 ar
  10    6    8 ar
  11    7   27 ar
  12    7   34 1
  13    8    9 ar
  14    8   35 1
  15    9   10 ar
  16    9   36 1
  17   10   27 ar
  18   10   37 1
  19   11   12 1
  20   11   38 1
  21   11   39 1
  22   12   13 am
  23   12   14 2
  24   13   15 1
  25   13   19 1
  26   15   16 1
  27   15   40 1
  28   15   41 1
  29   16   17 1
  30   16   42 1
  31   16   43 1
  32   17   18 1
  33   17   20 1
  34   18   19 1
  35   18   44 1
  36   18   45 1
  37   19   46 1
  38   19   47 1
  39   20   21 ar
  40   20   25 ar
  41   21   22 ar
  42   22   23 ar
  43   22   48 1
  44   23   24 ar
  45   23   49 1
  46   24   25 ar
  47   24   50 1
  48   26   28 ar
  49   26   32 ar
  50   27   51 1
  51   28   29 ar
  52   28   52 1
  53   29   30 ar
  54   29   53 1
  55   30   31 ar
  56   30   33 1
  57   31   32 ar
  58   31   54 1
  59   32   55 1
  60   33   56 1
  61   33   57 1
  62   33   58 1

#	End of record

