#	Name: ASD01913989
#	Creating user name:	WinNT
#	Creation time:	15. 06. 2019 20:02

#	Modifying user name:	WinNT
#	Modification time:	15. 06. 2019 20:02

#	Program:	/corina/corina34_cracker 3.40 0067  02.08.2006

@<TRIPOS>MOLECULE
ASD01913989
  41   44    0    0    0
SMALL
NO_CHARGES


@<TRIPOS>ATOM
   1 N1            -0.0154     1.2879     0.0091 N.2     
   2 N2             0.0021    -0.0041     0.0020 N.pl3   
   3 C3             1.2725    -0.4397    -0.0096 C.2     
   4 C4             2.0842     0.6785    -0.0146 C.2     
   5 C5             1.2191     1.7700    -0.0001 C.2     
   6 C6             3.5809     0.5618    -0.0366 C.3     
   7 C7             1.8965    -1.7760    -0.0126 C.ar    
   8 C8             1.1862    -2.9385    -0.2617 C.ar    
   9 C9             1.8455    -4.1538    -0.2633 C.ar    
  10 C10            3.2068    -4.2031    -0.0182 C.ar    
  11 C11            3.9211    -3.0483     0.2379 C.ar    
  12 C12            3.2784    -1.8211     0.2521 C.ar    
  13 O13            3.9621    -0.6884     0.5454 O.3     
  14 C14            1.6048     3.1961     0.0038 C.2     
  15 O15            2.7797     3.5081    -0.0062 O.2     
  16 N16            0.6540     4.1513     0.0185 N.am    
  17 C17           -1.1842    -0.8636     0.0065 C.3     
  18 C18            1.0365     5.5655     0.0224 C.3     
  19 C19           -0.2039     6.4213     0.0393 C.ar    
  20 C20           -0.7607     6.8072     1.2443 C.ar    
  21 C21           -1.8992     7.5927     1.2597 C.ar    
  22 C22           -2.4800     7.9917     0.0688 C.ar    
  23 C23           -1.9224     7.6053    -1.1351 C.ar    
  24 C24           -0.7812     6.8248    -1.1499 C.ar    
  25 Cl25          -2.5994     8.0773     2.7725 Cl      
  26 H26            3.9348     0.6072    -1.0665 H       
  27 H27            4.0186     1.3791     0.5366 H       
  28 H28            0.1241    -2.8961    -0.4531 H       
  29 H29            1.2982    -5.0648    -0.4555 H       
  30 H30            3.7166    -5.1552    -0.0269 H       
  31 H31            4.9830    -3.1025     0.4274 H       
  32 H32           -0.2835     3.9024     0.0264 H       
  33 H33           -1.4861    -1.0716    -1.0200 H       
  34 H34           -0.9525    -1.8001     0.5139 H       
  35 H35           -1.9968    -0.3587     0.5289 H       
  36 H36            1.6362     5.7773     0.9076 H       
  37 H37            1.6185     5.7870    -0.8723 H       
  38 H38           -0.3072     6.4952     2.1735 H       
  39 H39           -3.3691     8.6047     0.0803 H       
  40 H40           -2.3756     7.9167    -2.0647 H       
  41 H41           -0.3430     6.5271    -2.0910 H       
@<TRIPOS>BOND
   1    1    2 1
   2    1    5 2
   3    2    3 1
   4    2   17 1
   5    3    4 2
   6    3    7 1
   7    4    5 1
   8    4    6 1
   9    5   14 1
  10    6   13 1
  11    6   26 1
  12    6   27 1
  13    7    8 ar
  14    7   12 ar
  15    8    9 ar
  16    8   28 1
  17    9   10 ar
  18    9   29 1
  19   10   11 ar
  20   10   30 1
  21   11   12 ar
  22   11   31 1
  23   12   13 1
  24   14   15 2
  25   14   16 am
  26   16   18 1
  27   16   32 1
  28   17   33 1
  29   17   34 1
  30   17   35 1
  31   18   19 1
  32   18   36 1
  33   18   37 1
  34   19   20 ar
  35   19   24 ar
  36   20   21 ar
  37   20   38 1
  38   21   22 ar
  39   21   25 1
  40   22   23 ar
  41   22   39 1
  42   23   24 ar
  43   23   40 1
  44   24   41 1

#	End of record

