#	Name: ASD01812980
#	Creating user name:	WinNT
#	Creation time:	15. 06. 2019 19:29

#	Modifying user name:	WinNT
#	Modification time:	15. 06. 2019 19:29

#	Program:	/corina/corina34_cracker 3.40 0067  02.08.2006

@<TRIPOS>MOLECULE
ASD01812980
  50   54    0    0    0
SMALL
NO_CHARGES


@<TRIPOS>ATOM
   1 C1            -0.0166     1.3763     0.0096 C.ar    
   2 C2             0.0021    -0.0041     0.0020 C.ar    
   3 C3             1.2089    -0.6873    -0.0132 C.ar    
   4 C4             2.3943     0.0073    -0.0207 C.ar    
   5 C5             2.3945     1.4054    -0.0132 C.ar    
   6 C6             1.1722     2.0915     0.0021 C.ar    
   7 C7             3.8414    -0.4181    -0.0373 C.3     
   8 N8             4.6316     0.8184    -0.0384 N.am    
   9 C9             3.7920     1.8679    -0.0245 C.2     
  10 C10            6.0945     0.8961    -0.0529 C.3     
  11 C11            6.5816     0.9306    -1.4786 C.ar    
  12 O12            1.1518     3.4477     0.0091 O.3     
  13 O13            4.1376     3.0337    -0.0217 O.2     
  14 C14            6.7445     2.1429    -2.1335 C.ar    
  15 C15            7.1940     2.1316    -3.4428 C.ar    
  16 C16            7.4662     0.9084    -4.0550 C.ar    
  17 N17            7.2969    -0.2301    -3.3920 N.ar    
  18 C18            6.8761    -0.2460    -2.1445 C.ar    
  19 C19           -0.0561     4.0669     0.0235 C.ar    
  20 C20           -0.6712     4.3819     1.2424 C.ar    
  21 C21           -1.9148     5.0193     1.2445 C.ar    
  22 C22           -2.5285     5.3341     0.0514 C.ar    
  23 C23           -1.9185     5.0217    -1.1524 C.ar    
  24 C24           -0.6856     4.3963    -1.1698 C.ar    
  25 C25           -0.0292     4.0520     2.4791 C.1     
  26 N26            0.4801     3.7903     3.4603 N.1     
  27 F27           -0.0951     4.1007    -2.3484 F       
  28 C28            8.2564    -0.2299    -6.1921 C.2     
  29 C29            7.9466     0.8786    -5.4531 C.2     
  30 O30            8.1671     1.9362    -6.2545 O.3     
  31 N31            8.5582     1.5907    -7.3450 N.2     
  32 C32            8.6565     0.2954    -7.4387 C.2     
  33 C33            9.1092    -0.4888    -8.6433 C.3     
  34 H34           -0.9603     1.9015     0.0169 H       
  35 H35           -0.9272    -0.5544     0.0083 H       
  36 H36            1.2168    -1.7673    -0.0187 H       
  37 H37            4.0689    -1.0074     0.8510 H       
  38 H38            4.0513    -0.9978    -0.9361 H       
  39 H39            6.4154     1.8012     0.4628 H       
  40 H40            6.5097     0.0238     0.4519 H       
  41 H41            6.5251     3.0745    -1.6332 H       
  42 H42            7.3316     3.0569    -3.9826 H       
  43 H43            6.7544    -1.1908    -1.6355 H       
  44 H44           -2.3948     5.2647     2.1803 H       
  45 H45           -3.4898     5.8263     0.0550 H       
  46 H46           -2.4068     5.2721    -2.0827 H       
  47 H47            8.2101    -1.2658    -5.8901 H       
  48 H48            8.2473    -0.7276    -9.2663 H       
  49 H49            9.8195     0.1056    -9.2179 H       
  50 H50            9.5884    -1.4118    -8.3168 H       
@<TRIPOS>BOND
   1    1    2 ar
   2    1    6 ar
   3    1   34 1
   4    2    3 ar
   5    2   35 1
   6    3    4 ar
   7    3   36 1
   8    4    7 1
   9    4    5 ar
  10    5    6 ar
  11    5    9 1
  12    6   12 1
  13    7    8 1
  14    7   37 1
  15    7   38 1
  16    8    9 am
  17    8   10 1
  18    9   13 2
  19   10   11 1
  20   10   39 1
  21   10   40 1
  22   11   14 ar
  23   11   18 ar
  24   12   19 1
  25   14   15 ar
  26   14   41 1
  27   15   16 ar
  28   15   42 1
  29   16   17 ar
  30   16   29 1
  31   17   18 ar
  32   18   43 1
  33   19   20 ar
  34   19   24 ar
  35   20   21 ar
  36   20   25 1
  37   21   22 ar
  38   21   44 1
  39   22   23 ar
  40   22   45 1
  41   23   24 ar
  42   23   46 1
  43   24   27 1
  44   25   26 3
  45   28   29 2
  46   28   32 1
  47   28   47 1
  48   29   30 1
  49   30   31 1
  50   31   32 2
  51   32   33 1
  52   33   48 1
  53   33   49 1
  54   33   50 1

#	End of record

