#	Name: ASD02190010
#	Creating user name:	WinNT
#	Creation time:	15. 06. 2019 20:18

#	Modifying user name:	WinNT
#	Modification time:	15. 06. 2019 20:18

#	Program:	/corina/corina34_cracker 3.40 0067  02.08.2006

@<TRIPOS>MOLECULE
ASD02190010
  42   44    0    0    0
SMALL
NO_CHARGES


@<TRIPOS>ATOM
   1 C1            -0.0361     1.5299     0.0057 C.3     
   2 C2             2.0198     2.3645     1.1838 C.ar    
   3 N3             3.2531     2.8442     1.1452 N.ar    
   4 C4             3.8660     3.0568    -0.0127 C.ar    
   5 N5             3.2723     2.7998    -1.1709 N.ar    
   6 C6             2.0353     2.3166    -1.2043 C.ar    
   7 C7             1.3679     2.0775    -0.0008 C.ar    
   8 N8             1.4170     2.0492    -2.4168 N.pl3   
   9 C9             2.0436     2.3983    -3.6094 C.ar    
  10 C10            1.8634     1.6127    -4.7445 C.ar    
  11 C11            2.4819     1.9547    -5.9252 C.ar    
  12 C12            3.2919     3.0931    -5.9841 C.ar    
  13 C13            3.4704     3.8803    -4.8421 C.ar    
  14 C14            2.8448     3.5354    -3.6661 C.ar    
  15 C15            5.2454     3.5943    -0.0116 C.2     
  16 C16            5.9351     3.8381    -1.1411 C.2     
  17 C17            0.0123     0.0239     0.0313 C.2     
  18 C18           -0.6189    -0.6359     0.9708 C.2     
  19 S19            7.4849     4.4507    -0.7749 S.3     
  20 C20            7.1681     4.3658     0.9515 C.2     
  21 C21            5.9399     3.8973     1.1615 C.2     
  22 C22            1.3360     2.1279     2.5058 C.3     
  23 C23            3.9564     3.4623    -7.2471 C.2     
  24 O24            3.8006     2.7771    -8.2385 O.2     
  25 O25            4.7366     4.5597    -7.3022 O.3     
  26 H26           -0.5630     1.8915     0.8887 H       
  27 H27           -0.5596     1.8614    -0.8910 H       
  28 H28            0.5478     1.6189    -2.4334 H       
  29 H29            1.2377     0.7336    -4.6983 H       
  30 H30            2.3422     1.3444    -6.8052 H       
  31 H31            4.0953     4.7601    -4.8843 H       
  32 H32            2.9819     4.1431    -2.7839 H       
  33 H33            5.5602     3.6689    -2.1398 H       
  34 H34            0.5673    -0.5115    -0.7248 H       
  35 H35           -0.5842    -1.7152     0.9891 H       
  36 H36           -1.1739    -0.1005     1.7269 H       
  37 H37            7.8637     4.6543     1.7257 H       
  38 H38            5.5220     3.7579     2.1476 H       
  39 H39            0.7981     3.0282     2.8028 H       
  40 H40            0.6333     1.3004     2.4084 H       
  41 H41            2.0819     1.8841     3.2622 H       
  42 H42            5.1513     4.7613    -8.1522 H       
@<TRIPOS>BOND
   1    1   17 1
   2    1    7 1
   3    1   26 1
   4    1   27 1
   5    2    3 ar
   6    2   22 1
   7    2    7 ar
   8    3    4 ar
   9    4    5 ar
  10    4   15 1
  11    5    6 ar
  12    6    7 ar
  13    6    8 1
  14    8    9 1
  15    8   28 1
  16    9   10 ar
  17    9   14 ar
  18   10   11 ar
  19   10   29 1
  20   11   12 ar
  21   11   30 1
  22   12   13 ar
  23   12   23 1
  24   13   14 ar
  25   13   31 1
  26   14   32 1
  27   15   16 2
  28   15   21 1
  29   16   19 1
  30   16   33 1
  31   17   18 2
  32   17   34 1
  33   18   35 1
  34   18   36 1
  35   19   20 1
  36   20   21 2
  37   20   37 1
  38   21   38 1
  39   22   39 1
  40   22   40 1
  41   22   41 1
  42   23   24 2
  43   23   25 1
  44   25   42 1

#	End of record

