#	Name: ASD02039422
#	Creating user name:	WinNT
#	Creation time:	15. 06. 2019 20:18

#	Modifying user name:	WinNT
#	Modification time:	15. 06. 2019 20:18

#	Program:	/corina/corina34_cracker 3.40 0067  02.08.2006

@<TRIPOS>MOLECULE
ASD02039422
  56   59    0    0    0
SMALL
NO_CHARGES


@<TRIPOS>ATOM
   1 C1            -0.1167     0.6709    -0.9222 C.ar    
   2 C2             0.2087    -0.6485    -1.1796 C.ar    
   3 C3             0.9437     1.6258    -0.4375 C.3     
   4 N4             1.6851     2.1554    -1.5847 N.am    
   5 C5             1.1579     3.2996    -2.3325 C.3     
   6 C6             2.8521     1.5901    -1.9521 C.2     
   7 C7             3.3267     0.3722    -1.2726 C.2     
   8 C8             4.4197    -0.3687    -1.6157 C.2     
   9 N9             2.7597    -0.2140    -0.1873 N.2     
  10 C10            3.4532    -1.2682     0.1322 C.2     
  11 N11            4.4916    -1.3940    -0.7346 N.pl3   
  12 O12            3.5133     2.0855    -2.8447 O.2     
  13 C13            5.5067    -2.4502    -0.7192 C.3     
  14 C14            2.1573     4.4605    -2.4677 C.3     
  15 C15            1.6517     4.6241    -3.9107 C.3     
  16 C16            1.2598     3.1380    -3.8584 C.3     
  17 C17           -0.7586    -1.5310    -1.6251 C.ar    
  18 C18           -2.0573    -1.0978    -1.8155 C.ar    
  19 C19           -2.3903     0.2328    -1.5565 C.ar    
  20 C20           -1.4091     1.1168    -1.1135 C.ar    
  21 C21           -3.7820     0.7050    -1.7585 C.ar    
  22 F22           -3.0017    -1.9598    -2.2515 F       
  23 C23           -4.4542     0.4401    -2.9573 C.ar    
  24 C24           -4.4392     1.4126    -0.7564 C.ar    
  25 N25           -5.6760     1.8341    -0.9309 N.ar    
  26 C26           -6.3382     1.6051    -2.0546 C.ar    
  27 C27           -5.7483     0.8995    -3.1000 C.ar    
  28 N28           -7.6405     2.0701    -2.1901 N.pl3   
  29 C29           -8.4198     1.7290    -3.3828 C.3     
  30 C30           -8.2343     2.9016    -1.1401 C.3     
  31 H31            1.2224    -0.9909    -1.0324 H       
  32 H32            0.4733     2.4478     0.1020 H       
  33 H33            1.6295     1.1002     0.2270 H       
  34 H34            0.1710     3.6107    -1.9900 H       
  35 H35            5.0975    -0.1746    -2.4338 H       
  36 H36            3.2394    -1.9337     0.9555 H       
  37 H37            5.1717    -3.2851    -1.3346 H       
  38 H38            6.4437    -2.0594    -1.1160 H       
  39 H39            5.6600    -2.7919     0.3044 H       
  40 H40            1.9281     5.3110    -1.8257 H       
  41 H41            3.1999     4.1489    -2.4030 H       
  42 H42            0.7994     5.2975    -4.0011 H       
  43 H43            2.4426     4.8421    -4.6284 H       
  44 H44            2.0569     2.4648    -4.1739 H       
  45 H45            0.3059     2.9208    -4.3391 H       
  46 H46           -0.4986    -2.5601    -1.8248 H       
  47 H47           -1.6612     2.1474    -0.9113 H       
  48 H48           -3.9720    -0.1102    -3.7518 H       
  49 H49           -3.9308     1.6183     0.1740 H       
  50 H50           -6.2953     0.7170    -4.0131 H       
  51 H51           -8.9634     0.8005    -3.2084 H       
  52 H52           -9.1278     2.5300    -3.5955 H       
  53 H53           -7.7481     1.6028    -4.2319 H       
  54 H54           -8.0313     3.9517    -1.3500 H       
  55 H55           -9.3117     2.7381    -1.1131 H       
  56 H56           -7.8018     2.6334    -0.1762 H       
@<TRIPOS>BOND
   1    1    2 ar
   2    1    3 1
   3    1   20 ar
   4    2   17 ar
   5    2   31 1
   6    3    4 1
   7    3   32 1
   8    3   33 1
   9    4    5 1
  10    4    6 am
  11    5   14 1
  12    5   16 1
  13    5   34 1
  14    6    7 1
  15    6   12 2
  16    7    8 2
  17    7    9 1
  18    8   11 1
  19    8   35 1
  20    9   10 2
  21   10   11 1
  22   10   36 1
  23   11   13 1
  24   13   37 1
  25   13   38 1
  26   13   39 1
  27   14   15 1
  28   14   40 1
  29   14   41 1
  30   15   16 1
  31   15   42 1
  32   15   43 1
  33   16   44 1
  34   16   45 1
  35   17   18 ar
  36   17   46 1
  37   18   19 ar
  38   18   22 1
  39   19   20 ar
  40   19   21 1
  41   20   47 1
  42   21   23 ar
  43   21   24 ar
  44   23   27 ar
  45   23   48 1
  46   24   25 ar
  47   24   49 1
  48   25   26 ar
  49   26   27 ar
  50   26   28 1
  51   27   50 1
  52   28   29 1
  53   28   30 1
  54   29   51 1
  55   29   52 1
  56   29   53 1
  57   30   54 1
  58   30   55 1
  59   30   56 1

#	End of record

