#	Name: ASD04370040
#	Creating user name:	WinNT
#	Creation time:	15. 06. 2019 20:49

#	Modifying user name:	WinNT
#	Modification time:	15. 06. 2019 20:49

#	Program:	/corina/corina34_cracker 3.40 0067  02.08.2006

@<TRIPOS>MOLECULE
ASD04370040
  61   61    0    0    0
SMALL
NO_CHARGES


@<TRIPOS>ATOM
   1 C1            -0.6617    -0.3500    -1.3103 C.2     
   2 C2             0.0144     0.0234    -0.0163 C.3     
   3 C3             1.4090    -0.6042     0.0301 C.3     
   4 C4             1.2809    -2.1274     0.0953 C.3     
   5 O5            -0.0474    -0.9469    -2.1625 O.2     
   6 O6            -1.9479    -0.0243    -1.5139 O.3     
   7 N7             2.1218    -0.1229     1.2161 N.am    
   8 C8             2.8503     1.0092     1.1513 C.2     
   9 C9             3.6735     1.4443     2.3361 C.3     
  10 C10            4.3974     2.7502     2.0022 C.3     
  11 C11            5.2333     3.1920     3.2052 C.3     
  12 C12            5.9572     4.4979     2.8713 C.3     
  13 C13            6.7930     4.9397     4.0742 C.3     
  14 C14            7.5169     6.2456     3.7403 C.3     
  15 C15            8.3527     6.6874     4.9433 C.3     
  16 O16            2.8432     1.6777     0.1394 O.2     
  17 O17            9.0289     7.9071     4.6314 O.3     
  18 C18            9.8419     8.4091     5.6939 C.3     
  19 C19           10.5037     9.6908     5.2576 C.ar    
  20 C20            9.8739    10.9037     5.4766 C.ar    
  21 C21           10.4816    12.0829     5.0753 C.ar    
  22 C22           11.7202    12.0474     4.4550 C.ar    
  23 C23           12.3502    10.8327     4.2366 C.ar    
  24 C24           11.7434     9.6548     4.6433 C.ar    
  25 F25            8.6662    10.9381     6.0813 F       
  26 F26            9.8663    13.2667     5.2883 F       
  27 F27           12.3131    13.1963     4.0631 F       
  28 F28           13.5579    10.7969     3.6321 F       
  29 F29           12.3600     8.4708     4.4354 F       
  30 N30            2.6130    -2.7242     0.2603 N.3     
  31 C31            2.5136    -4.1582     0.5634 C.3     
  32 C32            3.4441    -2.4939    -0.9289 C.3     
  33 H33            0.1017     1.1080     0.0483 H       
  34 H34           -0.5775    -0.3440     0.8221 H       
  35 H35            1.9634    -0.3241    -0.8656 H       
  36 H36            0.6518    -2.4033     0.9416 H       
  37 H37            0.8303    -2.4939    -0.8271 H       
  38 H38           -2.3382    -0.2850    -2.3594 H       
  39 H39            2.0695    -0.6190     2.0480 H       
  40 H40            3.0204     1.6003     3.1948 H       
  41 H41            4.4064     0.6728     2.5724 H       
  42 H42            5.0505     2.5943     1.1436 H       
  43 H43            3.6646     3.5217     1.7659 H       
  44 H44            4.5802     3.3479     4.0638 H       
  45 H45            5.9661     2.4205     3.4415 H       
  46 H46            6.6103     4.3420     2.0126 H       
  47 H47            5.2243     5.2694     2.6350 H       
  48 H48            6.1399     5.0956     4.9329 H       
  49 H49            7.5258     4.1682     4.3105 H       
  50 H50            8.1700     6.0897     2.8817 H       
  51 H51            6.7841     7.0171     3.5040 H       
  52 H52            7.6996     6.8433     5.8019 H       
  53 H53            9.0856     5.9159     5.1795 H       
  54 H54            9.2197     8.6007     6.5681 H       
  55 H55           10.6056     7.6733     5.9458 H       
  56 H56            2.0011    -4.6674    -0.2528 H       
  57 H57            3.5139    -4.5750     0.6807 H       
  58 H58            1.9519    -4.2961     1.4873 H       
  59 H59            3.5588    -1.4220    -1.0899 H       
  60 H60            4.4246    -2.9460    -0.7800 H       
  61 H61            2.9653    -2.9429    -1.7992 H       
@<TRIPOS>BOND
   1    1    2 1
   2    1    5 2
   3    1    6 1
   4    2    3 1
   5    2   33 1
   6    2   34 1
   7    3    4 1
   8    3    7 1
   9    3   35 1
  10    4   30 1
  11    4   36 1
  12    4   37 1
  13    6   38 1
  14    7    8 am
  15    7   39 1
  16    8    9 1
  17    8   16 2
  18    9   10 1
  19    9   40 1
  20    9   41 1
  21   10   11 1
  22   10   42 1
  23   10   43 1
  24   11   12 1
  25   11   44 1
  26   11   45 1
  27   12   13 1
  28   12   46 1
  29   12   47 1
  30   13   14 1
  31   13   48 1
  32   13   49 1
  33   14   15 1
  34   14   50 1
  35   14   51 1
  36   15   17 1
  37   15   52 1
  38   15   53 1
  39   17   18 1
  40   18   19 1
  41   18   54 1
  42   18   55 1
  43   19   20 ar
  44   19   24 ar
  45   20   21 ar
  46   20   25 1
  47   21   22 ar
  48   21   26 1
  49   22   23 ar
  50   22   27 1
  51   23   24 ar
  52   23   28 1
  53   24   29 1
  54   30   31 1
  55   30   32 1
  56   31   56 1
  57   31   57 1
  58   31   58 1
  59   32   59 1
  60   32   60 1
  61   32   61 1

#	End of record

