#	Name: ASD01916969
#	Creating user name:	WinNT
#	Creation time:	15. 06. 2019 20:08

#	Modifying user name:	WinNT
#	Modification time:	15. 06. 2019 20:08

#	Program:	/corina/corina34_cracker 3.40 0067  02.08.2006

@<TRIPOS>MOLECULE
ASD01916969
  53   57    0    0    0
SMALL
NO_CHARGES


@<TRIPOS>ATOM
   1 C1            -0.0176     1.3132     0.0363 C.2     
   2 N2            -0.0018     0.0117    -0.1518 N.2     
   3 N3            -1.3360    -0.4240    -0.1097 N.pl3   
   4 C4            -2.0920     0.6777     0.1077 C.2     
   5 N5            -1.2843     1.7138     0.1981 N.2     
   6 C6             1.1762     2.1941     0.0699 C.ar    
   7 C7             1.0281     3.5639     0.2780 C.ar    
   8 C8             2.4488     1.6530    -0.1008 C.ar    
   9 C9             3.5561     2.4755    -0.0684 C.ar    
  10 C10            3.4040     3.8377     0.1340 C.ar    
  11 C11            2.1408     4.3792     0.3090 C.ar    
  12 F12            4.4908     4.6395     0.1655 F       
  13 C13           -1.8153    -1.7990    -0.2702 C.3     
  14 C14           -1.8517    -2.4785     1.0745 C.2     
  15 N15           -2.2630    -3.7582     1.1719 N.am    
  16 O16           -1.5108    -1.8736     2.0689 O.2     
  17 C17           -2.3062    -4.4402     2.4743 C.3     
  18 C18           -3.6933    -5.0674     2.6497 C.3     
  19 N19           -3.9913    -5.9206     1.4916 N.3     
  20 C20           -4.0529    -5.1343     0.2522 C.3     
  21 C21           -2.6863    -4.5080    -0.0205 C.3     
  22 C22           -5.1681    -6.6338     1.6880 C.ar    
  23 N23           -5.8474    -6.4815     2.8142 N.ar    
  24 C24           -6.9688    -7.1395     3.0403 C.ar    
  25 C25           -7.4762    -8.0166     2.1031 C.ar    
  26 C26           -6.7939    -8.2051     0.9082 C.ar    
  27 C27           -5.6247    -7.4971     0.6970 C.ar    
  28 C28           -3.5657     0.7110     0.2280 C.2     
  29 C29           -4.4614    -0.4268     0.4724 C.2     
  30 C30           -5.7045     0.0805     0.5030 C.2     
  31 O31           -5.6418     1.4056     0.3017 O.3     
  32 C32           -4.3726     1.8031     0.1412 C.2     
  33 H33            0.0438     3.9869     0.4145 H       
  34 H34            2.5684     0.5911    -0.2580 H       
  35 H35            4.5429     2.0569    -0.2006 H       
  36 H36            2.0266     5.4416     0.4661 H       
  37 H37           -2.8176    -1.7868    -0.6983 H       
  38 H38           -1.1432    -2.3429    -0.9340 H       
  39 H39           -1.5452    -5.2200     2.5047 H       
  40 H40           -2.1271    -3.7187     3.2715 H       
  41 H41           -3.7081    -5.6692     3.5583 H       
  42 H42           -4.4423    -4.2789     2.7229 H       
  43 H43           -4.3286    -5.7848    -0.5778 H       
  44 H44           -4.7970    -4.3449     0.3589 H       
  45 H45           -2.7566    -3.8330    -0.8735 H       
  46 H46           -1.9591    -5.2925    -0.2297 H       
  47 H47           -7.4962    -6.9900     3.9708 H       
  48 H48           -8.3943    -8.5513     2.2972 H       
  49 H49           -7.1700    -8.8861     0.1591 H       
  50 H50           -5.0692    -7.6193    -0.2210 H       
  51 H51           -4.1781    -1.4610     0.6012 H       
  52 H52           -6.6092    -0.4870     0.6635 H       
  53 H53           -4.0459     2.8173    -0.0352 H       
@<TRIPOS>BOND
   1    1    2 2
   2    1    6 1
   3    1    5 1
   4    2    3 1
   5    3    4 1
   6    3   13 1
   7    4    5 2
   8    4   28 1
   9    6    7 ar
  10    6    8 ar
  11    7   11 ar
  12    7   33 1
  13    8    9 ar
  14    8   34 1
  15    9   10 ar
  16    9   35 1
  17   10   11 ar
  18   10   12 1
  19   11   36 1
  20   13   14 1
  21   13   37 1
  22   13   38 1
  23   14   15 am
  24   14   16 2
  25   15   17 1
  26   15   21 1
  27   17   18 1
  28   17   39 1
  29   17   40 1
  30   18   19 1
  31   18   41 1
  32   18   42 1
  33   19   20 1
  34   19   22 1
  35   20   21 1
  36   20   43 1
  37   20   44 1
  38   21   45 1
  39   21   46 1
  40   22   23 ar
  41   22   27 ar
  42   23   24 ar
  43   24   25 ar
  44   24   47 1
  45   25   26 ar
  46   25   48 1
  47   26   27 ar
  48   26   49 1
  49   27   50 1
  50   28   29 1
  51   28   32 2
  52   29   30 2
  53   29   51 1
  54   30   31 1
  55   30   52 1
  56   31   32 1
  57   32   53 1

#	End of record

