#	Name: ASD01870496
#	Creating user name:	WinNT
#	Creation time:	15. 06. 2019 19:39

#	Modifying user name:	WinNT
#	Modification time:	15. 06. 2019 19:39

#	Program:	/corina/corina34_cracker 3.40 0067  02.08.2006

@<TRIPOS>MOLECULE
ASD01870496
  43   46    0    0    0
SMALL
NO_CHARGES


@<TRIPOS>ATOM
   1 C1            -0.0305     1.3966    -0.2326 C.ar    
   2 C2            -0.0275     0.0162    -0.1052 C.ar    
   3 C3             1.1515    -0.6623     0.1402 C.ar    
   4 C4             2.3474     0.0281     0.2621 C.ar    
   5 C5             2.3598     1.4079     0.1367 C.ar    
   6 C6             1.1573     2.0999    -0.1132 C.ar    
   7 C7             3.4144     2.4414     0.2050 C.2     
   8 N8             2.8482     3.6454     0.0061 N.am    
   9 C9             1.5220     3.5304    -0.1881 C.2     
  10 O10            0.7533     4.4482    -0.3919 O.2     
  11 O11            4.5945     2.2377     0.4072 O.2     
  12 C12            3.5487     4.8614     0.0031 C.ar    
  13 C13            4.0786     5.3542    -1.1817 C.ar    
  14 C14            4.7673     6.5505    -1.1853 C.ar    
  15 C15            4.9304     7.2620    -0.0033 C.ar    
  16 C16            4.4006     6.7696     1.1822 C.ar    
  17 C17            3.7068     5.5749     1.1846 C.ar    
  18 Cl18           3.0380     4.9623     2.6649 Cl      
  19 N19            5.6290     8.4746    -0.0072 N.am    
  20 C20            6.4012     8.8108     1.0450 C.2     
  21 C21            7.2168    10.0372     0.9984 C.2     
  22 O22            6.4247     8.1020     2.0331 O.2     
  23 N23            8.0388    10.4902     1.9920 N.pl3   
  24 C24            8.6011    11.6457     1.5478 C.2     
  25 C25            8.1148    11.8720     0.3028 C.2     
  26 N26            7.2831    10.8810    -0.0095 N.2     
  27 C27            8.2697     9.8519     3.2903 C.3     
  28 C28           -1.3192     2.1285    -0.5058 C.3     
  29 H29           -0.9528    -0.5329    -0.1981 H       
  30 H30            1.1408    -1.7378     0.2381 H       
  31 H31            3.2655    -0.5073     0.4542 H       
  32 H32            3.9523     4.8012    -2.1007 H       
  33 H33            5.1797     6.9333    -2.1071 H       
  34 H34            4.5273     7.3226     2.1012 H       
  35 H35            5.5576     9.0730    -0.7672 H       
  36 H36            9.3025    12.2663     2.0855 H       
  37 H37            8.3632    12.7115    -0.3296 H       
  38 H38            9.1073     9.1590     3.2105 H       
  39 H39            8.4987    10.6146     4.0346 H       
  40 H40            7.3750     9.3072     3.5916 H       
  41 H41           -1.7914     2.3978     0.4389 H       
  42 H42           -1.1094     3.0323    -1.0778 H       
  43 H43           -1.9887     1.4847    -1.0762 H       
@<TRIPOS>BOND
   1    1    2 ar
   2    1    6 ar
   3    1   28 1
   4    2    3 ar
   5    2   29 1
   6    3    4 ar
   7    3   30 1
   8    4    5 ar
   9    4   31 1
  10    5    7 1
  11    5    6 ar
  12    6    9 1
  13    7    8 am
  14    7   11 2
  15    8    9 am
  16    8   12 1
  17    9   10 2
  18   12   13 ar
  19   12   17 ar
  20   13   14 ar
  21   13   32 1
  22   14   15 ar
  23   14   33 1
  24   15   16 ar
  25   15   19 1
  26   16   17 ar
  27   16   34 1
  28   17   18 1
  29   19   20 am
  30   19   35 1
  31   20   21 1
  32   20   22 2
  33   21   23 1
  34   21   26 2
  35   23   24 1
  36   23   27 1
  37   24   25 2
  38   24   36 1
  39   25   26 1
  40   25   37 1
  41   27   38 1
  42   27   39 1
  43   27   40 1
  44   28   41 1
  45   28   42 1
  46   28   43 1

#	End of record

