#	Name: ASD01881838
#	Creating user name:	WinNT
#	Creation time:	15. 06. 2019 19:43

#	Modifying user name:	WinNT
#	Modification time:	15. 06. 2019 19:43

#	Program:	/corina/corina34_cracker 3.40 0067  02.08.2006

@<TRIPOS>MOLECULE
ASD01881838
  40   42    0    0    0
SMALL
NO_CHARGES


@<TRIPOS>ATOM
   1 C1            -0.0184     1.5028     0.0103 C.2     
   2 C2             0.0021    -0.0041     0.0020 C.3     
   3 C3             1.4513    -0.4944    -0.0145 C.3     
   4 O4             1.0197     2.1211     0.0037 O.2     
   5 O5            -1.1898     2.1580     0.0194 O.3     
   6 C6            -0.7241    -0.5171    -1.2431 C.3     
   7 O7             1.4734    -1.9190     0.0951 O.3     
   8 N8             6.2605    -4.5812     0.1210 N.pl3   
   9 N9             5.7199    -5.8700     0.2418 N.2     
  10 N10            4.4366    -5.7936     0.2847 N.2     
  11 C11            4.0406    -4.5079     0.1997 C.ar    
  12 C12            5.1941    -3.7116     0.0938 C.ar    
  13 C13            2.7814    -3.8922     0.1989 C.ar    
  14 C14            2.6937    -2.5193     0.0958 C.ar    
  15 C15            3.8458    -1.7435    -0.0081 C.ar    
  16 C16            5.0800    -2.3299    -0.0100 C.ar    
  17 C17            7.6807    -4.2297     0.0451 C.3     
  18 C18            8.1264    -4.2211    -1.4185 C.3     
  19 C19            9.5543    -3.7613    -1.7195 C.3     
  20 C20            9.1857    -5.2413    -1.8404 C.3     
  21 Br21           1.2117    -4.9373     0.3393 Br      
  22 C22           -1.1335     3.6089     0.0270 C.3     
  23 H23           -0.4983    -0.3791     0.8948 H       
  24 H24            1.9257    -0.1944    -0.9488 H       
  25 H25            1.9924    -0.0570     0.8246 H       
  26 H26           -0.7093    -1.6070    -1.2491 H       
  27 H27           -1.7565    -0.1678    -1.2314 H       
  28 H28           -0.2237    -0.1421    -2.1359 H       
  29 H29            3.7629    -0.6697    -0.0886 H       
  30 H30            5.9673    -1.7197    -0.0913 H       
  31 H31            7.8338    -3.2408     0.4773 H       
  32 H32            8.2666    -4.9631     0.5991 H       
  33 H33            7.3530    -3.9689    -2.1440 H       
  34 H34            9.7204    -3.2069    -2.6431 H       
  35 H35           10.1762    -3.4649    -0.8747 H       
  36 H36            9.5651    -5.9186    -1.0752 H       
  37 H37            9.1093    -5.6606    -2.8436 H       
  38 H38           -0.6017     3.9472     0.9164 H       
  39 H39           -0.6102     3.9569    -0.8636 H       
  40 H40           -2.1463     4.0118     0.0340 H       
@<TRIPOS>BOND
   1    1    2 1
   2    1    4 2
   3    1    5 1
   4    2    3 1
   5    2    6 1
   6    2   23 1
   7    3    7 1
   8    3   24 1
   9    3   25 1
  10    5   22 1
  11    6   26 1
  12    6   27 1
  13    6   28 1
  14    7   14 1
  15    8    9 1
  16    8   12 1
  17    8   17 1
  18    9   10 2
  19   10   11 1
  20   11   12 ar
  21   11   13 ar
  22   12   16 ar
  23   13   14 ar
  24   13   21 1
  25   14   15 ar
  26   15   16 ar
  27   15   29 1
  28   16   30 1
  29   17   18 1
  30   17   31 1
  31   17   32 1
  32   18   19 1
  33   18   20 1
  34   18   33 1
  35   19   20 1
  36   19   34 1
  37   19   35 1
  38   20   36 1
  39   20   37 1
  40   22   38 1
  41   22   39 1
  42   22   40 1

#	End of record

