#	Name: ASD01910410
#	Creating user name:	WinNT
#	Creation time:	15. 06. 2019 19:55

#	Modifying user name:	WinNT
#	Modification time:	15. 06. 2019 19:55

#	Program:	/corina/corina34_cracker 3.40 0067  02.08.2006

@<TRIPOS>MOLECULE
ASD01910410
  40   42    0    0    0
SMALL
NO_CHARGES


@<TRIPOS>ATOM
   1 C1            -0.0166     1.3760     0.0096 C.ar    
   2 C2             0.0021    -0.0041     0.0020 C.ar    
   3 C3             1.2193    -0.6816    -0.0132 C.ar    
   4 C4             2.4117     0.0388    -0.0207 C.ar    
   5 C5             2.3815     1.4187    -0.0130 C.ar    
   6 C6             1.1702     2.0863     0.0021 C.ar    
   7 C7             1.2456    -2.1658    -0.0210 C.2     
   8 N8             2.3467    -2.9454    -0.0356 N.2     
   9 C9             1.9002    -4.1869    -0.0370 C.2     
  10 O10            0.5600    -4.1190    -0.0234 O.3     
  11 N11            0.2053    -2.9594    -0.0091 N.2     
  12 C12            2.7198    -5.4177    -0.0510 C.ar    
  13 C13            2.1002    -6.6691    -0.0507 C.ar    
  14 C14            2.8633    -7.8153    -0.0642 C.ar    
  15 C15            4.2569    -7.7262    -0.0781 C.ar    
  16 C16            4.8765    -6.4747    -0.0783 C.ar    
  17 C17            4.1131    -5.3285    -0.0702 C.ar    
  18 C18            5.0764    -8.9569    -0.0920 C.2     
  19 O19            4.5371   -10.0462    -0.0914 O.2     
  20 N20            6.4214    -8.8709    -0.1054 N.am    
  21 C21            7.2333   -10.0902    -0.1193 C.3     
  22 C22            8.7165    -9.7151    -0.1328 C.3     
  23 C23            9.5645   -10.9886    -0.1472 C.3     
  24 H24           -0.9597     1.9023     0.0169 H       
  25 H25           -0.9252    -0.5577     0.0082 H       
  26 H26            3.3580    -0.4816    -0.0322 H       
  27 H27            3.3053     1.9781    -0.0185 H       
  28 H28            1.1511     3.1661     0.0077 H       
  29 H29            1.0224    -6.7380    -0.0396 H       
  30 H30            2.3841    -8.7832    -0.0636 H       
  31 H31            5.9542    -6.4057    -0.0887 H       
  32 H32            4.5923    -4.3606    -0.0704 H       
  33 H33            6.8517    -8.0016    -0.1059 H       
  34 H34            7.0161   -10.6814     0.7703 H       
  35 H35            6.9979   -10.6734    -1.0095 H       
  36 H36            8.9337    -9.1239    -1.0224 H       
  37 H37            8.9520    -9.1319     0.7575 H       
  38 H38           10.6212   -10.7214    -0.1568 H       
  39 H39            9.3473   -11.5798     0.7424 H       
  40 H40            9.3291   -11.5718    -1.0375 H       
@<TRIPOS>BOND
   1    1    2 ar
   2    1    6 ar
   3    1   24 1
   4    2    3 ar
   5    2   25 1
   6    3    4 ar
   7    3    7 1
   8    4    5 ar
   9    4   26 1
  10    5    6 ar
  11    5   27 1
  12    6   28 1
  13    7    8 1
  14    7   11 2
  15    8    9 2
  16    9   10 1
  17    9   12 1
  18   10   11 1
  19   12   13 ar
  20   12   17 ar
  21   13   14 ar
  22   13   29 1
  23   14   15 ar
  24   14   30 1
  25   15   16 ar
  26   15   18 1
  27   16   17 ar
  28   16   31 1
  29   17   32 1
  30   18   19 2
  31   18   20 am
  32   20   21 1
  33   20   33 1
  34   21   22 1
  35   21   34 1
  36   21   35 1
  37   22   23 1
  38   22   36 1
  39   22   37 1
  40   23   38 1
  41   23   39 1
  42   23   40 1

#	End of record

