#	Name: ASD01882090
#	Creating user name:	WinNT
#	Creation time:	15. 06. 2019 19:43

#	Modifying user name:	WinNT
#	Modification time:	15. 06. 2019 19:43

#	Program:	/corina/corina34_cracker 3.40 0067  02.08.2006

@<TRIPOS>MOLECULE
ASD01882090
  60   63    0    0    0
SMALL
NO_CHARGES


@<TRIPOS>ATOM
   1 C1            -0.0161     1.3337     0.0094 C.2     
   2 N2             0.0021    -0.0041     0.0020 N.am    
   3 C3             1.2613    -0.4841    -0.0126 C.2     
   4 C4             2.1640     0.7337    -0.0147 C.3     
   5 N5             1.2200     1.8645     0.0004 N.am    
   6 O6            -1.0354     1.9955     0.0180 O.2     
   7 O7             1.6013    -1.6477    -0.0215 O.2     
   8 C8             3.0460     0.7520     1.2354 C.3     
   9 C9             3.0220     0.7655    -1.2811 C.3     
  10 C10           -1.1986    -0.8435     0.0097 C.3     
  11 C11            1.5609     3.2893     0.0041 C.3     
  12 C12            1.6916     3.7708     1.4261 C.ar    
  13 C13            2.9179     3.7119     2.0635 C.ar    
  14 C14            3.0436     4.1515     3.3656 C.ar    
  15 C15            1.9317     4.6556     4.0386 C.ar    
  16 C16            0.6985     4.7125     3.3911 C.ar    
  17 C17            0.5860     4.2753     2.0870 C.ar    
  18 C18            2.4011     6.4574     9.4563 C.2     
  19 N19            1.2748     6.6730    10.1623 N.am    
  20 C20           -0.0323     6.2996     9.6260 C.3     
  21 C21           -0.1270     6.6303     8.1388 C.3     
  22 C22            1.0641     6.0705     7.4062 C.ar    
  23 C23            0.9444     5.6328     6.1075 C.ar    
  24 C24            2.0602     5.1290     5.4378 C.ar    
  25 C25            3.2963     5.0692     6.0821 C.ar    
  26 C26            3.4170     5.5022     7.3842 C.ar    
  27 C27            2.3001     6.0005     8.0550 C.ar    
  28 O28            3.4897     6.6418     9.9652 O.2     
  29 C29            1.3612     7.2906    11.4879 C.3     
  30 C30            2.2178     6.4142    12.4039 C.3     
  31 C31            1.9992     8.6757    11.3646 C.3     
  32 H32            3.6824    -0.1329     1.2441 H       
  33 H33            3.6682     1.6470     1.2280 H       
  34 H34            2.4158     0.7550     2.1247 H       
  35 H35            2.3749     0.7780    -2.1581 H       
  36 H36            3.6443     1.6604    -1.2759 H       
  37 H37            3.6580    -0.1191    -1.3114 H       
  38 H38           -2.0851    -0.2094     0.0217 H       
  39 H39           -1.2108    -1.4683    -0.8833 H       
  40 H40           -1.1931    -1.4772     0.8965 H       
  41 H41            2.5060     3.4381    -0.5182 H       
  42 H42            0.7749     3.8522    -0.4994 H       
  43 H43            3.7786     3.3209     1.5412 H       
  44 H44            4.0014     4.1047     3.8624 H       
  45 H45           -0.1663     5.1021     3.9076 H       
  46 H46           -0.3679     4.3233     1.5828 H       
  47 H47           -0.1841     5.2292     9.7652 H       
  48 H48           -0.8088     6.8435    10.1640 H       
  49 H49           -1.0394     6.1967     7.7296 H       
  50 H50           -0.1544     7.7124     8.0103 H       
  51 H51           -0.0116     5.6786     5.6073 H       
  52 H52            4.1591     4.6830     5.5597 H       
  53 H53            4.3732     5.4559     7.8841 H       
  54 H54            0.3607     7.3876    11.9095 H       
  55 H55            3.2183     6.3172    11.9824 H       
  56 H56            2.2821     6.8737    13.3903 H       
  57 H57            1.7633     5.4274    12.4918 H       
  58 H58            1.3889     9.3000    10.7120 H       
  59 H59            2.0635     9.1352    12.3509 H       
  60 H60            2.9997     8.5787    10.9431 H       
@<TRIPOS>BOND
   1    1    2 am
   2    1    5 am
   3    1    6 2
   4    2    3 am
   5    2   10 1
   6    3    4 1
   7    3    7 2
   8    4    5 1
   9    4    8 1
  10    4    9 1
  11    5   11 1
  12    8   32 1
  13    8   33 1
  14    8   34 1
  15    9   35 1
  16    9   36 1
  17    9   37 1
  18   10   38 1
  19   10   39 1
  20   10   40 1
  21   11   12 1
  22   11   41 1
  23   11   42 1
  24   12   13 ar
  25   12   17 ar
  26   13   14 ar
  27   13   43 1
  28   14   15 ar
  29   14   44 1
  30   15   16 ar
  31   15   24 1
  32   16   17 ar
  33   16   45 1
  34   17   46 1
  35   18   19 am
  36   18   27 1
  37   18   28 2
  38   19   20 1
  39   19   29 1
  40   20   21 1
  41   20   47 1
  42   20   48 1
  43   21   22 1
  44   21   49 1
  45   21   50 1
  46   22   23 ar
  47   22   27 ar
  48   23   24 ar
  49   23   51 1
  50   24   25 ar
  51   25   26 ar
  52   25   52 1
  53   26   27 ar
  54   26   53 1
  55   29   30 1
  56   29   31 1
  57   29   54 1
  58   30   55 1
  59   30   56 1
  60   30   57 1
  61   31   58 1
  62   31   59 1
  63   31   60 1

#	End of record

