#	Name: ASD06020160
#	Creating user name:	WinNT
#	Creation time:	15. 06. 2019 21:04

#	Modifying user name:	WinNT
#	Modification time:	15. 06. 2019 21:04

#	Program:	/corina/corina34_cracker 3.40 0067  02.08.2006

@<TRIPOS>MOLECULE
ASD06020160
  25   27    0    0    0
SMALL
NO_CHARGES


@<TRIPOS>ATOM
   1 C1            -0.0169     1.3948     0.0097 C.ar    
   2 C2             0.0021    -0.0041     0.0020 C.ar    
   3 C3             1.2286    -0.6775    -0.0134 C.ar    
   4 C4             2.4020     0.1194    -0.0203 C.ar    
   5 C5             2.2926     1.4738    -0.0120 C.ar    
   6 N6             1.1145     2.0781     0.0026 N.ar    
   7 S7            -1.2877    -1.2017     0.0080 S.3     
   8 C8            -0.0978    -2.4971    -0.0104 C.2     
   9 N9             1.0981    -2.0047    -0.0192 N.2     
  10 N10           -1.2324     2.0699     0.0191 N.pl3   
  11 C11           -0.4184    -3.9401    -0.0144 C.ar    
  12 C12            0.6082    -4.8869    -0.0294 C.ar    
  13 C13            0.3011    -6.2333    -0.0330 C.ar    
  14 C14           -1.0195    -6.6450    -0.0223 C.ar    
  15 C15           -2.0414    -5.7129    -0.0074 C.ar    
  16 C16           -1.7493    -4.3631     0.0027 C.ar    
  17 Cl17          -3.0333    -3.1951     0.0287 Cl      
  18 Cl18           2.2661    -4.3725    -0.0440 Cl      
  19 H19            3.3759    -0.3472    -0.0318 H       
  20 H20            3.1908     2.0736    -0.0174 H       
  21 H21           -2.0643     1.5710     0.0204 H       
  22 H22           -1.2485     3.0398     0.0245 H       
  23 H23            1.0939    -6.9666    -0.0446 H       
  24 H24           -1.2537    -7.6993    -0.0259 H       
  25 H25           -3.0702    -6.0415     0.0006 H       
@<TRIPOS>BOND
   1    1    2 ar
   2    1    6 ar
   3    1   10 1
   4    2    3 ar
   5    2    7 1
   6    3    4 ar
   7    3    9 1
   8    4    5 ar
   9    4   19 1
  10    5    6 ar
  11    5   20 1
  12    7    8 1
  13    8    9 2
  14    8   11 1
  15   10   21 1
  16   10   22 1
  17   11   12 ar
  18   11   16 ar
  19   12   13 ar
  20   12   18 1
  21   13   14 ar
  22   13   23 1
  23   14   15 ar
  24   14   24 1
  25   15   16 ar
  26   15   25 1
  27   16   17 1

#	End of record

