#	Name: ASD01150824
#	Creating user name:	WinNT
#	Creation time:	15. 06. 2019 19:05

#	Modifying user name:	WinNT
#	Modification time:	15. 06. 2019 19:05

#	Program:	/corina/corina34_cracker 3.40 0067  02.08.2006

@<TRIPOS>MOLECULE
ASD01150824
  51   52    0    0    0
SMALL
NO_CHARGES


@<TRIPOS>ATOM
   1 N1            -0.0179     1.4659     0.0101 N.3     
   2 C2             0.0021    -0.0041     0.0020 C.3     
   3 C3             0.7497    -0.4921    -1.2417 C.3     
   4 O4             2.0659     0.0673    -1.2506 O.3     
   5 C5             2.0838     1.4973    -1.2437 C.3     
   6 C6             1.3496     2.0055    -0.0001 C.3     
   7 C7            -0.7765     1.9758     1.1601 C.3     
   8 C8             0.6633     5.2561     2.0254 C.ar    
   9 N9             0.4770     3.9478     1.9195 N.ar    
  10 C10           -0.5725     3.4644     1.2763 C.ar    
  11 C11           -1.4826     4.3436     0.7098 C.ar    
  12 C12           -1.2576     5.7051     0.8393 C.ar    
  13 N13           -0.1878     6.1229     1.4954 N.ar    
  14 C14           -2.2201     6.6974     0.2392 C.3     
  15 C15           -2.7002     7.6627     1.3248 C.3     
  16 S16            2.0715     5.8567     2.8976 S.3     
  17 C17            1.8127     7.6396     2.7227 C.3     
  18 C18            2.9468     8.3907     3.4230 C.3     
  19 C19            2.7280     9.8977     3.2753 C.3     
  20 C20            3.8621    10.6489     3.9756 C.3     
  21 C21            3.6433    12.1559     3.8278 C.3     
  22 C22            4.7774    12.9070     4.5281 C.3     
  23 H23            0.5087    -0.3661     0.8967 H       
  24 H24           -1.0202    -0.3818    -0.0162 H       
  25 H25            0.8167    -1.5799    -1.2226 H       
  26 H26            0.2136    -0.1754    -2.1363 H       
  27 H27            3.1155     1.8483    -1.2262 H       
  28 H28            1.5864     1.8718    -2.1384 H       
  29 H29            1.3110     3.0946    -0.0198 H       
  30 H30            1.8778     1.6756     0.8946 H       
  31 H31           -1.8364     1.7643     1.0189 H       
  32 H32           -0.4270     1.4890     2.0706 H       
  33 H33           -2.3480     3.9755     0.1789 H       
  34 H34           -1.7189     7.2581    -0.5498 H       
  35 H35           -3.0753     6.1667    -0.1792 H       
  36 H36           -3.3963     8.3805     0.8908 H       
  37 H37           -3.2013     7.1020     2.1138 H       
  38 H38           -1.8449     8.1934     1.7432 H       
  39 H39            1.8011     7.9030     1.6651 H       
  40 H40            0.8604     7.9146     3.1761 H       
  41 H41            2.9584     8.1272     4.4806 H       
  42 H42            3.8991     8.1156     2.9696 H       
  43 H43            2.7164    10.1612     2.2176 H       
  44 H44            1.7757    10.1728     3.7287 H       
  45 H45            3.8737    10.3854     5.0332 H       
  46 H46            4.8144    10.3738     3.5221 H       
  47 H47            3.6317    12.4194     2.7702 H       
  48 H48            2.6910    12.4310     4.2812 H       
  49 H49            4.7890    12.6436     5.5857 H       
  50 H50            5.7297    12.6320     4.0747 H       
  51 H51            4.6215    13.9807     4.4228 H       
@<TRIPOS>BOND
   1    1    2 1
   2    1    6 1
   3    1    7 1
   4    2    3 1
   5    2   23 1
   6    2   24 1
   7    3    4 1
   8    3   25 1
   9    3   26 1
  10    4    5 1
  11    5    6 1
  12    5   27 1
  13    5   28 1
  14    6   29 1
  15    6   30 1
  16    7   10 1
  17    7   31 1
  18    7   32 1
  19    8    9 ar
  20    8   13 ar
  21    8   16 1
  22    9   10 ar
  23   10   11 ar
  24   11   12 ar
  25   11   33 1
  26   12   13 ar
  27   12   14 1
  28   14   15 1
  29   14   34 1
  30   14   35 1
  31   15   36 1
  32   15   37 1
  33   15   38 1
  34   16   17 1
  35   17   18 1
  36   17   39 1
  37   17   40 1
  38   18   19 1
  39   18   41 1
  40   18   42 1
  41   19   20 1
  42   19   43 1
  43   19   44 1
  44   20   21 1
  45   20   45 1
  46   20   46 1
  47   21   22 1
  48   21   47 1
  49   21   48 1
  50   22   49 1
  51   22   50 1
  52   22   51 1

#	End of record

