#	Name: ASD03240537
#	Creating user name:	WinNT
#	Creation time:	15. 06. 2019 20:35

#	Modifying user name:	WinNT
#	Modification time:	15. 06. 2019 20:35

#	Program:	/corina/corina34_cracker 3.40 0067  02.08.2006

@<TRIPOS>MOLECULE
ASD03240537
  65   71    0    0    0
SMALL
NO_CHARGES


@<TRIPOS>ATOM
   1 C1            -0.0523     1.4367     0.0597 C.ar    
   2 C2            -0.0460     0.0570     0.0471 C.ar    
   3 N3             1.0879    -0.6173     0.0262 N.ar    
   4 C4             2.2658    -0.0076     0.0174 C.ar    
   5 C5             2.3338     1.3842     0.0152 C.ar    
   6 C6             1.1563     2.1203     0.0431 C.ar    
   7 N7             3.4265    -0.7758     0.0315 N.pl3   
   8 C8             4.3143    -0.7015     1.1011 C.ar    
   9 C9             4.9641     0.4999     1.4038 C.ar    
  10 C10            4.7358     1.6997     0.5687 C.2     
  11 N11            3.5630     2.0569    -0.0328 N.pl3   
  12 C12            4.5572    -1.8264     1.8780 C.ar    
  13 C13            5.4276    -1.7530     2.9487 C.ar    
  14 C14            6.0626    -0.5620     3.2559 C.ar    
  15 C15            5.8357     0.5641     2.4906 C.ar    
  16 N16            5.6530     2.6023     0.2873 N.2     
  17 C17            5.1237     3.5566    -0.4956 C.2     
  18 C18            3.7943     3.2318    -0.7154 C.2     
  19 C19            2.8199     3.9930    -1.5205 C.ar    
  20 C20            2.7335     5.3813    -1.3898 C.ar    
  21 C21            1.9832     3.3294    -2.4214 C.ar    
  22 C22            1.0747     4.0473    -3.1707 C.ar    
  23 C23            0.9910     5.4217    -3.0321 C.ar    
  24 C24            1.8202     6.0862    -2.1456 C.ar    
  25 C25            5.8317     4.7401    -1.0276 C.ar    
  26 C26           -0.0039     6.1991    -3.8548 C.3     
  27 N27           -1.0948     5.3619    -4.3715 N.3     
  28 C28           -0.4877     7.4917    -3.1766 C.3     
  29 C29           -0.4090     8.1548    -4.5619 C.3     
  30 C30            0.6457     7.0934    -4.9239 C.3     
  31 C31            6.8164     5.3683    -0.2594 C.ar    
  32 C32            7.4711     6.4612    -0.7490 C.ar    
  33 C33            7.1562     6.9532    -2.0227 C.ar    
  34 C34            6.1692     6.3219    -2.7915 C.ar    
  35 C35            5.5199     5.2264    -2.3007 C.ar    
  36 C36            7.8590     8.1289    -2.5509 C.2     
  37 O37            8.6398     8.7353    -1.8479 O.2     
  38 C38            7.6105     8.5825    -3.9663 C.3     
  39 H39           -0.9863     1.9786     0.0778 H       
  40 H40           -0.9835    -0.4791     0.0548 H       
  41 H41            1.1802     3.2000     0.0514 H       
  42 H42            3.6185    -1.3691    -0.7115 H       
  43 H43            4.0652    -2.7593     1.6455 H       
  44 H44            5.6139    -2.6308     3.5497 H       
  45 H45            6.7374    -0.5135     4.0977 H       
  46 H46            6.3322     1.4923     2.7324 H       
  47 H47            3.3800     5.9012    -0.6983 H       
  48 H48            2.0479     2.2569    -2.5311 H       
  49 H49            0.4272     3.5357    -3.8675 H       
  50 H50            1.7492     7.1589    -2.0423 H       
  51 H51           -0.7331     4.5386    -4.8292 H       
  52 H52           -1.7392     5.1131    -3.6360 H       
  53 H53           -1.5014     7.4246    -2.7816 H       
  54 H54            0.2221     7.8991    -2.4566 H       
  55 H55           -1.3291     8.0689    -5.1399 H       
  56 H56           -0.0164     9.1713    -4.5377 H       
  57 H57            1.6659     7.3913    -4.6818 H       
  58 H58            0.5459     6.7068    -5.9381 H       
  59 H59            7.0589     4.9889     0.7223 H       
  60 H60            8.2313     6.9467    -0.1550 H       
  61 H61            5.9249     6.7000    -3.7732 H       
  62 H62            4.7594     4.7393    -2.8930 H       
  63 H63            6.9585     7.8673    -4.4679 H       
  64 H64            7.1340     9.5628    -3.9554 H       
  65 H65            8.5590     8.6455    -4.4995 H       
@<TRIPOS>BOND
   1    1    2 ar
   2    1    6 ar
   3    1   39 1
   4    2    3 ar
   5    2   40 1
   6    3    4 ar
   7    4    5 ar
   8    4    7 1
   9    5    6 ar
  10    5   11 1
  11    6   41 1
  12    7    8 1
  13    7   42 1
  14    8    9 ar
  15    8   12 ar
  16    9   10 1
  17    9   15 ar
  18   10   11 1
  19   10   16 2
  20   11   18 1
  21   12   13 ar
  22   12   43 1
  23   13   14 ar
  24   13   44 1
  25   14   15 ar
  26   14   45 1
  27   15   46 1
  28   16   17 1
  29   17   18 2
  30   17   25 1
  31   18   19 1
  32   19   20 ar
  33   19   21 ar
  34   20   24 ar
  35   20   47 1
  36   21   22 ar
  37   21   48 1
  38   22   23 ar
  39   22   49 1
  40   23   24 ar
  41   23   26 1
  42   24   50 1
  43   25   31 ar
  44   25   35 ar
  45   26   27 1
  46   26   28 1
  47   26   30 1
  48   27   51 1
  49   27   52 1
  50   28   29 1
  51   28   53 1
  52   28   54 1
  53   29   30 1
  54   29   55 1
  55   29   56 1
  56   30   57 1
  57   30   58 1
  58   31   32 ar
  59   31   59 1
  60   32   33 ar
  61   32   60 1
  62   33   34 ar
  63   33   36 1
  64   34   35 ar
  65   34   61 1
  66   35   62 1
  67   36   37 2
  68   36   38 1
  69   38   63 1
  70   38   64 1
  71   38   65 1

#	End of record

