#	Name: ASD04230059
#	Creating user name:	WinNT
#	Creation time:	15. 06. 2019 20:48

#	Modifying user name:	WinNT
#	Modification time:	15. 06. 2019 20:48

#	Program:	/corina/corina34_cracker 3.40 0067  02.08.2006

@<TRIPOS>MOLECULE
ASD04230059
  50   53    0    0    0
SMALL
NO_CHARGES


@<TRIPOS>ATOM
   1 C1             1.5360     4.6862     1.7198 C.ar    
   2 C2             2.5439     5.3840     2.3696 C.ar    
   3 C3             3.8005     4.8590     2.4681 C.ar    
   4 C4             4.0825     3.6081     1.9003 C.ar    
   5 C5             3.0564     2.8818     1.2692 C.ar    
   6 C6             1.7832     3.4397     1.1726 C.ar    
   7 C7             5.3934     3.0678     1.9619 C.2     
   8 C8             5.6628     1.9284     1.2155 C.2     
   9 C9             4.5671     1.3877     0.3904 C.2     
  10 O10            3.2979     1.6422     0.7793 O.3     
  11 C11            6.9879     1.2871     1.2463 C.2     
  12 N12            7.2188     0.1818     0.5104 N.am    
  13 O13            7.8740     1.7548     1.9358 O.2     
  14 C14            8.5059    -0.3623     0.4509 C.ar    
  15 C15            8.6753    -1.7391     0.3687 C.ar    
  16 C16            9.9457    -2.2806     0.3097 C.ar    
  17 C17           11.0532    -1.4571     0.3321 C.ar    
  18 C18           10.8929    -0.0744     0.4150 C.ar    
  19 C19            9.6134     0.4724     0.4682 C.ar    
  20 C20           12.0818     0.8118     0.4402 C.ar    
  21 O21            4.7981     0.7334    -0.6092 O.2     
  22 O22            0.7869     2.7610     0.5436 O.3     
  23 C23           12.1591     1.9017    -0.4239 C.ar    
  24 C24           13.2659     2.7244    -0.3986 C.ar    
  25 C25           14.3053     2.4694     0.4864 C.ar    
  26 C26           14.2360     1.3861     1.3502 C.ar    
  27 C27           13.1262     0.5589     1.3358 C.ar    
  28 O28           15.3933     3.2829     0.5060 O.3     
  29 C29           15.3999     4.3796    -0.4101 C.3     
  30 O30           13.0566    -0.5020     2.1812 O.3     
  31 C31           14.1653    -0.7056     3.0595 C.3     
  32 H32            0.5488     5.1178     1.6445 H       
  33 H33            2.3328     6.3514     2.8009 H       
  34 H34            4.5764     5.4065     2.9824 H       
  35 H35            6.1576     3.5287     2.5701 H       
  36 H36            6.4924    -0.2364     0.0222 H       
  37 H37            7.8120    -2.3878     0.3512 H       
  38 H38           10.0721    -3.3512     0.2462 H       
  39 H39           12.0443    -1.8838     0.2859 H       
  40 H40            9.4839     1.5427     0.5320 H       
  41 H41            0.2742     2.1849     1.1270 H       
  42 H42           11.3527     2.1023    -1.1138 H       
  43 H43           13.3245     3.5691    -1.0691 H       
  44 H44           15.0463     1.1905     2.0369 H       
  45 H45           15.3354     4.0012    -1.4303 H       
  46 H46           14.5465     5.0269    -0.2081 H       
  47 H47           16.3228     4.9472    -0.2907 H       
  48 H48           13.9818    -1.5836     3.6788 H       
  49 H49           15.0708    -0.8581     2.4722 H       
  50 H50           14.2890     0.1695     3.6974 H       
@<TRIPOS>BOND
   1    1    2 ar
   2    1    6 ar
   3    1   32 1
   4    2    3 ar
   5    2   33 1
   6    3    4 ar
   7    3   34 1
   8    4    5 ar
   9    4    7 1
  10    5    6 ar
  11    5   10 1
  12    6   22 1
  13    7    8 2
  14    7   35 1
  15    8    9 1
  16    8   11 1
  17    9   10 1
  18    9   21 2
  19   11   12 am
  20   11   13 2
  21   12   14 1
  22   12   36 1
  23   14   15 ar
  24   14   19 ar
  25   15   16 ar
  26   15   37 1
  27   16   17 ar
  28   16   38 1
  29   17   18 ar
  30   17   39 1
  31   18   19 ar
  32   18   20 1
  33   19   40 1
  34   20   23 ar
  35   20   27 ar
  36   22   41 1
  37   23   24 ar
  38   23   42 1
  39   24   25 ar
  40   24   43 1
  41   25   26 ar
  42   25   28 1
  43   26   27 ar
  44   26   44 1
  45   27   30 1
  46   28   29 1
  47   29   45 1
  48   29   46 1
  49   29   47 1
  50   30   31 1
  51   31   48 1
  52   31   49 1
  53   31   50 1

#	End of record

