#	Name: ASD01208916
#	Creating user name:	WinNT
#	Creation time:	15. 06. 2019 19:10

#	Modifying user name:	WinNT
#	Modification time:	15. 06. 2019 19:10

#	Program:	/corina/corina34_cracker 3.40 0067  02.08.2006

@<TRIPOS>MOLECULE
ASD01208916
  65   69    0    0    0
SMALL
NO_CHARGES


@<TRIPOS>ATOM
   1 C1            -0.2599     1.7869     0.5539 C.2     
   2 C2            -0.2292     0.3266     0.3261 C.ar    
   3 C3             0.9384    -0.2859    -0.1315 C.ar    
   4 C4             0.9631    -1.6542    -0.3432 C.ar    
   5 C5            -0.1710    -2.4162    -0.1015 C.ar    
   6 C6            -1.3339    -1.8116     0.3535 C.ar    
   7 C7            -1.3655    -0.4440     0.5734 C.ar    
   8 O8             0.7328     2.4560     0.3427 O.2     
   9 N9            -1.3901     2.3771     0.9905 N.am    
  10 O10           -2.4418    -2.5625     0.5887 O.3     
  11 C11           -3.4408    -2.5303    -0.3308 C.ar    
  12 C12           -4.6126    -3.2420    -0.1058 C.ar    
  13 C13           -5.6284    -3.2124    -1.0363 C.ar    
  14 C14           -5.4789    -2.4651    -2.2070 C.ar    
  15 C15           -4.2994    -1.7505    -2.4291 C.ar    
  16 C16           -3.2905    -1.7812    -1.4912 C.ar    
  17 O17           -6.5541    -1.7548    -4.3740 O.3     
  18 C18           -6.5647    -2.4309    -3.2071 C.2     
  19 N19           -7.7190    -3.0537    -3.1237 N.2     
  20 N20           -8.4186    -2.7990    -4.1729 N.2     
  21 C21           -7.7396    -2.0039    -4.9678 C.2     
  22 C22           -8.1910    -1.4790    -6.2729 C.ar    
  23 C23           -9.4505    -1.8212    -6.7687 C.ar    
  24 C24           -9.8657    -1.3276    -7.9881 C.ar    
  25 C25           -9.0371    -0.4951    -8.7194 C.ar    
  26 C26           -7.7874    -0.1524    -8.2342 C.ar    
  27 C27           -7.3622    -0.6339    -7.0134 C.ar    
  28 S28           -2.7795     4.6261     1.7551 S.3     
  29 C29           -1.4190     3.7492     1.2046 C.2     
  30 N30           -0.4179     4.5513     1.0168 N.2     
  31 C31           -0.6212     5.8303     1.2714 C.2     
  32 C32           -1.8526     6.1230     1.6944 C.2     
  33 C33           -2.3612     7.4943     2.0573 C.3     
  34 O34            2.0996    -2.2515    -0.7888 O.3     
  35 C35            3.1029    -3.9996    -2.1224 C.3     
  36 C36            2.0216    -3.6440    -1.1000 C.3     
  37 C37            2.2349    -4.4640     0.1740 C.3     
  38 O38            4.3926    -3.8151    -1.5353 O.3     
  39 C39            5.4792    -4.1214    -2.4114 C.3     
  40 H40            1.8214     0.3066    -0.3206 H       
  41 H41           -0.1485    -3.4830    -0.2683 H       
  42 H42           -2.2698     0.0254     0.9318 H       
  43 H43           -2.1834     1.8438     1.1553 H       
  44 H44           -4.7273    -3.8196     0.7996 H       
  45 H45           -6.5386    -3.7665    -0.8610 H       
  46 H46           -4.1800    -1.1715    -3.3330 H       
  47 H47           -2.3800    -1.2255    -1.6601 H       
  48 H48          -10.0981    -2.4711    -6.1990 H       
  49 H49          -10.8396    -1.5918    -8.3729 H       
  50 H50           -9.3670    -0.1114    -9.6735 H       
  51 H51           -7.1454     0.4976    -8.8103 H       
  52 H52           -6.3887    -0.3614    -6.6334 H       
  53 H53            0.1468     6.5795     1.1474 H       
  54 H54           -3.4035     7.4246     2.3686 H       
  55 H55           -1.7642     7.8987     2.8747 H       
  56 H56           -2.2838     8.1515     1.1911 H       
  57 H57            2.9875    -5.0399    -2.4264 H       
  58 H58            3.0049    -3.3532    -2.9946 H       
  59 H59            1.0397    -3.8688    -1.5166 H       
  60 H60            3.2168    -4.2393     0.5905 H       
  61 H61            1.4645    -4.2108     0.9023 H       
  62 H62            2.1754    -5.5262    -0.0634 H       
  63 H63            6.4228    -3.9560    -1.8915 H       
  64 H64            5.4131    -5.1643    -2.7214 H       
  65 H65            5.4305    -3.4775    -3.2896 H       
@<TRIPOS>BOND
   1    1    2 1
   2    1    8 2
   3    1    9 am
   4    2    3 ar
   5    2    7 ar
   6    3    4 ar
   7    3   40 1
   8    4    5 ar
   9    4   34 1
  10    5    6 ar
  11    5   41 1
  12    6    7 ar
  13    6   10 1
  14    7   42 1
  15    9   29 1
  16    9   43 1
  17   10   11 1
  18   11   12 ar
  19   11   16 ar
  20   12   13 ar
  21   12   44 1
  22   13   14 ar
  23   13   45 1
  24   14   15 ar
  25   14   18 1
  26   15   16 ar
  27   15   46 1
  28   16   47 1
  29   17   18 1
  30   17   21 1
  31   18   19 2
  32   19   20 1
  33   20   21 2
  34   21   22 1
  35   22   23 ar
  36   22   27 ar
  37   23   24 ar
  38   23   48 1
  39   24   25 ar
  40   24   49 1
  41   25   26 ar
  42   25   50 1
  43   26   27 ar
  44   26   51 1
  45   27   52 1
  46   28   29 1
  47   28   32 1
  48   29   30 2
  49   30   31 1
  50   31   32 2
  51   31   53 1
  52   32   33 1
  53   33   54 1
  54   33   55 1
  55   33   56 1
  56   34   36 1
  57   35   36 1
  58   35   38 1
  59   35   57 1
  60   35   58 1
  61   36   37 1
  62   36   59 1
  63   37   60 1
  64   37   61 1
  65   37   62 1
  66   38   39 1
  67   39   63 1
  68   39   64 1
  69   39   65 1

#	End of record

