#	Name: ASD01028588
#	Creating user name:	WinNT
#	Creation time:	15. 06. 2019 18:57

#	Modifying user name:	WinNT
#	Modification time:	15. 06. 2019 18:57

#	Program:	/corina/corina34_cracker 3.40 0067  02.08.2006

@<TRIPOS>MOLECULE
ASD01028588
  40   43    0    0    0
SMALL
NO_CHARGES


@<TRIPOS>ATOM
   1 N1            -0.0169     1.3918     0.0097 N.2     
   2 N2             0.0021    -0.0041     0.0020 N.pl3   
   3 C3             1.1078     2.0736     0.0026 C.2     
   4 C4             2.3541     1.4115    -0.0128 C.2     
   5 C5             2.4053     0.0528    -0.0211 C.2     
   6 C6             1.2032    -0.6788    -0.0131 C.2     
   7 N7             0.9161    -1.9692    -0.0175 N.2     
   8 N8            -0.3615    -2.1243    -0.0054 N.2     
   9 C9            -0.9613    -0.9608     0.0056 C.2     
  10 C10           -2.4498    -0.7260     0.0223 C.3     
  11 N11           -2.9176    -0.6561     1.4089 N.pl3   
  12 C12           -4.2622    -0.4448     1.6775 C.ar    
  13 C13           -5.1801    -0.2971     0.6509 C.ar    
  14 C14           -6.5199    -0.0865     0.9488 C.ar    
  15 N15           -6.9499    -0.0217     2.1875 N.ar    
  16 C16           -6.1188    -0.1558     3.2264 C.ar    
  17 C17           -4.7386    -0.3794     3.0102 C.ar    
  18 C18           -6.5940    -0.0846     4.5492 C.ar    
  19 C19           -5.6922    -0.2301     5.5704 C.ar    
  20 C20           -4.3404    -0.4429     5.2805 C.ar    
  21 N21           -3.9085    -0.5145     4.0453 N.ar    
  22 O22           -6.1100    -0.1674     6.8616 O.3     
  23 C23            1.0658     3.5545     0.0105 C.2     
  24 C24           -5.1144    -0.3277     7.8741 C.3     
  25 N25           -0.1199     4.1950     0.0248 N.am    
  26 O26            2.1005     4.1917     0.0040 O.2     
  27 H27            3.2691     1.9853    -0.0185 H       
  28 H28            3.3565    -0.4585    -0.0336 H       
  29 H29           -2.6754     0.2120    -0.4850 H       
  30 H30           -2.9527    -1.5462    -0.4899 H       
  31 H31           -2.2873    -0.7576     2.1391 H       
  32 H32           -4.8549    -0.3452    -0.3779 H       
  33 H33           -7.2267     0.0273     0.1402 H       
  34 H34           -7.6414     0.0807     4.7538 H       
  35 H35           -3.6378    -0.5562     6.0929 H       
  36 H36           -4.6407    -1.3035     7.7666 H       
  37 H37           -4.3624     0.4546     7.7713 H       
  38 H38           -5.5808    -0.2565     8.8567 H       
  39 H39           -0.9459     3.6864     0.0299 H       
  40 H40           -0.1474     5.1646     0.0299 H       
@<TRIPOS>BOND
   1    1    2 1
   2    1    3 2
   3    2    6 1
   4    2    9 1
   5    3    4 1
   6    3   23 1
   7    4    5 2
   8    4   27 1
   9    5    6 1
  10    5   28 1
  11    6    7 2
  12    7    8 1
  13    8    9 2
  14    9   10 1
  15   10   11 1
  16   10   29 1
  17   10   30 1
  18   11   12 1
  19   11   31 1
  20   12   13 ar
  21   12   17 ar
  22   13   14 ar
  23   13   32 1
  24   14   15 ar
  25   14   33 1
  26   15   16 ar
  27   16   17 ar
  28   16   18 ar
  29   17   21 ar
  30   18   19 ar
  31   18   34 1
  32   19   20 ar
  33   19   22 1
  34   20   21 ar
  35   20   35 1
  36   22   24 1
  37   23   25 am
  38   23   26 2
  39   24   36 1
  40   24   37 1
  41   24   38 1
  42   25   39 1
  43   25   40 1

#	End of record

