#	Name: ASD01841053
#	Creating user name:	WinNT
#	Creation time:	15. 06. 2019 19:38

#	Modifying user name:	WinNT
#	Modification time:	15. 06. 2019 19:38

#	Program:	/corina/corina34_cracker 3.40 0067  02.08.2006

@<TRIPOS>MOLECULE
ASD01841053
  36   38    0    0    0
SMALL
NO_CHARGES


@<TRIPOS>ATOM
   1 S1            -0.0204     1.6518     0.0111 S.o2    
   2 N2             0.0021    -0.0041     0.0020 N.am    
   3 S3             0.6146    -2.4449     1.2010 S.3     
   4 C4             0.5272    -0.6934     1.0773 C.2     
   5 N5             1.0231    -0.1444     2.1319 N.2     
   6 C6             1.4996    -0.9545     3.0998 C.ar    
   7 C7             1.3714    -2.3093     2.7864 C.ar    
   8 C8             1.8139    -3.2851     3.6779 C.ar    
   9 C9             2.3824    -2.9228     4.8787 C.ar    
  10 C10            2.5169    -1.5820     5.2060 C.ar    
  11 C11            2.0870    -0.6036     4.3378 C.ar    
  12 C12            1.6691    -4.7433     3.3263 C.3     
  13 O13            2.2263     0.7066     4.6729 O.3     
  14 C14            2.8275     0.9924     5.9374 C.3     
  15 C15            1.6553     2.1962    -0.0020 C.ar    
  16 O16           -0.5821     2.0523    -1.2312 O.2     
  17 O17           -0.5583     2.0388     1.2681 O.2     
  18 C18            2.3011     2.4161    -1.2041 C.ar    
  19 C19            3.6158     2.8437    -1.2152 C.ar    
  20 C20            4.2853     3.0511    -0.0242 C.ar    
  21 C21            3.6394     2.8311     1.1797 C.ar    
  22 C22            2.3222     2.4088     1.1901 C.ar    
  23 Cl23           4.4799     3.0909     2.6762 Cl      
  24 H24           -0.3536    -0.4898    -0.7586 H       
  25 H25            2.7232    -3.6830     5.5659 H       
  26 H26            2.9631    -1.3029     6.1491 H       
  27 H27            2.5610    -5.0799     2.7978 H       
  28 H28            1.5456    -5.3266     4.2388 H       
  29 H29            0.7960    -4.8782     2.6879 H       
  30 H30            2.8783     2.0719     6.0799 H       
  31 H31            2.2289     0.5487     6.7329 H       
  32 H32            3.8340     0.5747     5.9639 H       
  33 H33            1.7785     2.2535    -2.1352 H       
  34 H34            4.1198     3.0154    -2.1548 H       
  35 H35            5.3125     3.3845    -0.0329 H       
  36 H36            1.8176     2.2369     2.1294 H       
@<TRIPOS>BOND
   1    1    2 am
   2    1   15 1
   3    1   16 2
   4    1   17 2
   5    2    4 1
   6    2   24 1
   7    3    4 1
   8    3    7 1
   9    4    5 2
  10    5    6 1
  11    6    7 ar
  12    6   11 ar
  13    7    8 ar
  14    8    9 ar
  15    8   12 1
  16    9   10 ar
  17    9   25 1
  18   10   11 ar
  19   10   26 1
  20   11   13 1
  21   12   27 1
  22   12   28 1
  23   12   29 1
  24   13   14 1
  25   14   30 1
  26   14   31 1
  27   14   32 1
  28   15   18 ar
  29   15   22 ar
  30   18   19 ar
  31   18   33 1
  32   19   20 ar
  33   19   34 1
  34   20   21 ar
  35   20   35 1
  36   21   22 ar
  37   21   23 1
  38   22   36 1

#	End of record

