#	Name: ASD02560025
#	Creating user name:	WinNT
#	Creation time:	15. 06. 2019 20:24

#	Modifying user name:	WinNT
#	Modification time:	15. 06. 2019 20:24

#	Program:	/corina/corina34_cracker 3.40 0067  02.08.2006

@<TRIPOS>MOLECULE
ASD02560025
  40   41    0    0    0
SMALL
NO_CHARGES


@<TRIPOS>ATOM
   1 C1             0.0065     1.3610    -0.1895 C.ar    
   2 C2             0.0084    -0.0150    -0.0070 C.ar    
   3 C3             1.2110    -0.6906     0.1590 C.ar    
   4 C4             2.4037     0.0062     0.1430 C.ar    
   5 C5             2.4039     1.3772    -0.0382 C.ar    
   6 C6             1.2048     2.0571    -0.2055 C.ar    
   7 O7             1.2061     3.4046    -0.3835 O.3     
   8 C8            -0.0639     4.0384    -0.5493 C.3     
   9 C9             0.1347     5.5210    -0.7325 C.2     
  10 C10           -0.5213     6.1588    -1.6700 C.2     
  11 C11           -1.4745     5.4099    -2.5654 C.3     
  12 C12           -0.3228     7.6414    -1.8531 C.3     
  13 Cl13           3.9050     2.2491    -0.0571 Cl      
  14 N14           -1.1990    -0.7205     0.0101 N.am    
  15 C15           -1.4253    -1.6457     0.9636 C.2     
  16 C16           -2.7314    -2.3212     1.0386 C.2     
  17 S17           -0.1941    -2.0357     2.0874 S.2     
  18 C18           -3.1173    -3.2734     1.9366 C.2     
  19 O19           -4.3775    -3.6265     1.6616 O.3     
  20 C20           -4.8477    -2.9409     0.6080 C.2     
  21 C21           -3.8948    -2.1060     0.1656 C.2     
  22 C22           -2.2677    -3.8324     3.0487 C.3     
  23 H23           -0.9268     1.8876    -0.3232 H       
  24 H24            1.2134    -1.7612     0.3010 H       
  25 H25            3.3375    -0.5206     0.2726 H       
  26 H26           -0.5631     3.6275    -1.4268 H       
  27 H27           -0.6769     3.8603     0.3342 H       
  28 H28            0.8178     6.0576    -0.0908 H       
  29 H29           -2.2576     4.9525    -1.9607 H       
  30 H30           -1.9233     6.1020    -3.2779 H       
  31 H31           -0.9321     4.6337    -3.1051 H       
  32 H32            0.4904     7.8147    -2.5580 H       
  33 H33           -1.2399     8.0857    -2.2399 H       
  34 H34           -0.0752     8.0960    -0.8939 H       
  35 H35           -1.8735    -0.5439    -0.6642 H       
  36 H36           -5.8370    -3.0414     0.1865 H       
  37 H37           -3.9655    -1.4212    -0.6665 H       
  38 H38           -2.4061    -3.2326     3.9483 H       
  39 H39           -2.5635    -4.8621     3.2495 H       
  40 H40           -1.2189    -3.8068     2.7528 H       
@<TRIPOS>BOND
   1    1    2 ar
   2    1    6 ar
   3    1   23 1
   4    2    3 ar
   5    2   14 1
   6    3    4 ar
   7    3   24 1
   8    4    5 ar
   9    4   25 1
  10    5    6 ar
  11    5   13 1
  12    6    7 1
  13    7    8 1
  14    8    9 1
  15    8   26 1
  16    8   27 1
  17    9   10 2
  18    9   28 1
  19   10   11 1
  20   10   12 1
  21   11   29 1
  22   11   30 1
  23   11   31 1
  24   12   32 1
  25   12   33 1
  26   12   34 1
  27   14   15 am
  28   14   35 1
  29   15   16 1
  30   15   17 2
  31   16   18 2
  32   16   21 1
  33   18   19 1
  34   18   22 1
  35   19   20 1
  36   20   21 2
  37   20   36 1
  38   21   37 1
  39   22   38 1
  40   22   39 1
  41   22   40 1

#	End of record

