#	Name: ASD03430696
#	Creating user name:	WinNT
#	Creation time:	15. 06. 2019 20:41

#	Modifying user name:	WinNT
#	Modification time:	15. 06. 2019 20:41

#	Program:	/corina/corina34_cracker 3.40 0067  02.08.2006

@<TRIPOS>MOLECULE
ASD03430696
  42   46    0    0    0
SMALL
NO_CHARGES


@<TRIPOS>ATOM
   1 C1            -0.0167     1.3800     0.0096 C.ar    
   2 C2             0.0021    -0.0041     0.0020 C.ar    
   3 C3             1.2029    -0.6789    -0.0137 C.ar    
   4 C4             2.4075     0.0192    -0.0127 C.ar    
   5 C5             2.3790     1.4106    -0.0088 C.ar    
   6 C6             1.1744     2.0831     0.0020 C.ar    
   7 O7             3.4719    -0.8320    -0.0037 O.3     
   8 C8             1.5559    -2.1418    -0.0460 C.3     
   9 C9             3.0405    -2.1371    -0.4353 C.3     
  10 C10            0.4367    -3.8537     1.0210 C.ar    
  11 C11            1.3268    -2.8130     1.2757 C.ar    
  12 C12            0.7204    -2.9071    -1.0314 C.2     
  13 N13            0.1018    -3.8815    -0.3350 N.am    
  14 O14            0.6216    -2.6909    -2.2207 O.2     
  15 C15            1.7999    -2.5921     2.5494 C.ar    
  16 C16            1.3915    -3.4061     3.5915 C.ar    
  17 C17            0.5072    -4.4412     3.3505 C.ar    
  18 C18            0.0306    -4.6671     2.0755 C.ar    
  19 C19           -0.8145    -4.8568    -0.9311 C.3     
  20 C20           -2.2214    -4.3187    -0.8835 C.2     
  21 C21           -2.8119    -3.5753    -1.8364 C.2     
  22 C22           -4.1207    -3.2923    -1.3828 C.2     
  23 C23           -4.2517    -3.8797    -0.1798 C.2     
  24 O24           -3.1001    -4.5048     0.1150 O.3     
  25 Br25          -1.6652     2.3064     0.0225 Br      
  26 C26           -5.4836    -3.8468     0.6876 C.3     
  27 F27           -6.3053    -4.9342     0.3721 F       
  28 F28           -5.1085    -3.9207     2.0334 F       
  29 F29           -6.1807    -2.6548     0.4626 F       
  30 H30           -0.9263    -0.5558     0.0088 H       
  31 H31            3.3047     1.9668    -0.0139 H       
  32 H32            1.1615     3.1630     0.0046 H       
  33 H33            3.1584    -2.2469    -1.5134 H       
  34 H34            3.5826    -2.9194     0.0961 H       
  35 H35            2.4908    -1.7831     2.7356 H       
  36 H36            1.7631    -3.2333     4.5908 H       
  37 H37            0.1883    -5.0761     4.1639 H       
  38 H38           -0.6602    -5.4774     1.8950 H       
  39 H39           -0.5293    -5.0371    -1.9675 H       
  40 H40           -0.7639    -5.7914    -0.3725 H       
  41 H41           -2.3707    -3.2554    -2.7688 H       
  42 H42           -4.8712    -2.7151    -1.9023 H       
@<TRIPOS>BOND
   1    1    2 ar
   2    1    6 ar
   3    1   25 1
   4    2    3 ar
   5    2   30 1
   6    3    4 ar
   7    3    8 1
   8    4    5 ar
   9    4    7 1
  10    5    6 ar
  11    5   31 1
  12    6   32 1
  13    7    9 1
  14    8    9 1
  15    8   11 1
  16    8   12 1
  17    9   33 1
  18    9   34 1
  19   10   11 ar
  20   10   13 1
  21   10   18 ar
  22   11   15 ar
  23   12   13 am
  24   12   14 2
  25   13   19 1
  26   15   16 ar
  27   15   35 1
  28   16   17 ar
  29   16   36 1
  30   17   18 ar
  31   17   37 1
  32   18   38 1
  33   19   20 1
  34   19   39 1
  35   19   40 1
  36   20   21 2
  37   20   24 1
  38   21   22 1
  39   21   41 1
  40   22   23 2
  41   22   42 1
  42   23   24 1
  43   23   26 1
  44   26   27 1
  45   26   28 1
  46   26   29 1

#	End of record

