#	Name: ASD05730159
#	Creating user name:	WinNT
#	Creation time:	15. 06. 2019 21:02

#	Modifying user name:	WinNT
#	Modification time:	15. 06. 2019 21:02

#	Program:	/corina/corina34_cracker 3.40 0067  02.08.2006

@<TRIPOS>MOLECULE
ASD05730159
  18   19    0    0    0
SMALL
NO_CHARGES


@<TRIPOS>ATOM
   1 C1            -0.0168     1.3855     0.0097 C.ar    
   2 C2             0.0021    -0.0041     0.0020 C.ar    
   3 C3             1.2146    -0.6760    -0.0131 C.ar    
   4 C4             2.4044     0.0265    -0.0207 C.ar    
   5 C5             2.4018     1.4128    -0.0132 C.ar    
   6 C6             1.1943     2.1005     0.0019 C.ar    
   7 C7             1.1628     3.5790     0.0096 C.2     
   8 C8            -0.1331     4.2836     0.0251 C.2     
   9 C9            -1.2868     3.6025     0.0326 C.2     
  10 C10           -1.2960     2.1274     0.0197 C.2     
  11 O11           -2.3506     1.5242     0.0219 O.2     
  12 O12            2.2004     4.2109     0.0034 O.2     
  13 H13           -0.9247    -0.5586     0.0082 H       
  14 H14            1.2293    -1.7558    -0.0187 H       
  15 H15            3.3427    -0.5081    -0.0321 H       
  16 H16            3.3350     1.9564    -0.0195 H       
  17 H17           -0.1522     5.3634     0.0310 H       
  18 H18           -2.2229     4.1409     0.0443 H       
@<TRIPOS>BOND
   1    1    2 ar
   2    1    6 ar
   3    1   10 1
   4    2    3 ar
   5    2   13 1
   6    3    4 ar
   7    3   14 1
   8    4    5 ar
   9    4   15 1
  10    5    6 ar
  11    5   16 1
  12    6    7 1
  13    7    8 1
  14    7   12 2
  15    8    9 2
  16    8   17 1
  17    9   10 1
  18    9   18 1
  19   10   11 2

#	End of record

