#	Name: ASD03130001
#	Creating user name:	WinNT
#	Creation time:	15. 06. 2019 20:33

#	Modifying user name:	WinNT
#	Modification time:	15. 06. 2019 20:33

#	Program:	/corina/corina34_cracker 3.40 0067  02.08.2006

@<TRIPOS>MOLECULE
ASD03130001
 382  383    0    0    0
SMALL
NO_CHARGES


@<TRIPOS>ATOM
   1 N1            16.1960   -33.9046    11.1704 N.am    
   2 C2           -31.0561   -68.7919    -4.2923 C.2     
   3 O3           -31.3773   -68.5632    -3.1505 O.2     
   4 C4           -31.0728   -70.2068    -4.8108 C.3     
   5 C5           -31.5306   -71.1522    -3.6983 C.3     
   6 C6           -31.5475   -72.5887    -4.2248 C.3     
   7 C7           -32.0052   -73.5342    -3.1123 C.3     
   8 C8           -32.0222   -74.9707    -3.6387 C.3     
   9 C9           -32.4799   -75.9161    -2.5263 C.3     
  10 C10          -32.4969   -77.3526    -3.0527 C.3     
  11 C11          -32.9546   -78.2981    -1.9403 C.3     
  12 C12          -32.9716   -79.7345    -2.4667 C.3     
  13 C13          -33.4293   -80.6800    -1.3542 C.3     
  14 C14          -33.4463   -82.1165    -1.8807 C.3     
  15 C15          -33.9040   -83.0619    -0.7682 C.3     
  16 C16          -33.9209   -84.4984    -1.2946 C.3     
  17 C17          -34.3786   -85.4439    -0.1822 C.3     
  18 C18          -34.3956   -86.8804    -0.7086 C.3     
  19 C19          -30.6278   -66.2628    -4.6674 C.3     
  20 C20          -30.6445   -67.6777    -5.1859 C.2     
  21 N21          -30.1883   -65.3550    -5.7355 N.3     
  22 O22          -30.3234   -67.9063    -6.3276 O.2     
  23 C23          -30.9377   -62.5851    -7.1282 C.3     
  24 C24          -29.7206   -63.0701    -6.3381 C.3     
  25 C25          -29.0114   -61.8868    -5.7315 C.2     
  26 N26          -30.1600   -63.9778    -5.2700 N.3     
  27 O27          -28.8845   -61.8075    -4.5280 O.2     
  28 N28          -33.4228   -64.4215    -9.3231 N.pl3   
  29 C29          -34.5403   -64.2277   -10.1002 C.2     
  30 N30          -35.0921   -65.2380   -10.7116 N.2     
  31 N31          -35.0757   -62.9684   -10.2325 N.pl3   
  32 C32          -31.5855   -63.7710    -7.8459 C.3     
  33 C33          -32.8026   -63.2860    -8.6359 C.3     
  34 C34          -27.8287   -59.7663    -5.9369 C.3     
  35 C35          -27.9199   -58.5908    -6.8754 C.2     
  36 N36          -28.5181   -60.9167    -6.5265 N.am    
  37 O37          -28.5034   -58.7028    -7.9327 O.2     
  38 C38          -26.2771   -62.5375    -5.0642 C.ar    
  39 C39          -26.1888   -63.5411    -4.1177 C.ar    
  40 C40          -26.0858   -63.2198    -2.7771 C.ar    
  41 C41          -26.0708   -61.8949    -2.3831 C.ar    
  42 C42          -26.1596   -60.8913    -3.3295 C.ar    
  43 C43          -26.2625   -61.2126    -4.6701 C.ar    
  44 C44          -26.3584   -60.1184    -5.7019 C.3     
  45 C45          -28.7621   -55.5348    -7.2191 C.3     
  46 C46          -27.4419   -56.2722    -7.4521 C.3     
  47 C47          -26.2906   -55.3342    -7.1957 C.2     
  48 N48          -27.3532   -57.4150    -6.5397 N.am    
  49 O49          -25.4762   -55.5946    -6.3356 O.2     
  50 C50          -29.9123   -56.4338    -7.5931 C.2     
  51 N51          -30.6303   -57.2350    -6.7468 N.pl3   
  52 C52          -31.5641   -57.8663    -7.4906 C.2     
  53 N53          -31.4394   -57.4833    -8.7319 N.2     
  54 C54          -30.4352   -56.5988    -8.8231 C.2     
  55 C55          -23.8221   -53.7623    -8.4615 C.3     
  56 C56          -25.0468   -53.2940    -7.6731 C.3     
  57 C57          -25.4250   -51.9028    -8.1121 C.2     
  58 N58          -26.1660   -54.2058    -7.9223 N.am    
  59 O59          -26.4708   -51.7147    -8.6967 O.2     
  60 C60          -23.3533   -55.1142    -7.9198 C.3     
  61 C61          -24.1911   -53.9053    -9.9394 C.3     
  62 C62          -25.8528   -48.9275    -7.0487 C.3     
  63 C63          -25.0130   -49.5026    -8.1910 C.3     
  64 C64          -23.7908   -48.6453    -8.3968 C.2     
  65 N65          -24.6010   -50.8677    -7.8550 N.am    
  66 O66          -22.6845   -49.1272    -8.2749 O.2     
  67 C67          -27.1535   -49.7231    -6.9213 C.3     
  68 C68          -27.9806   -49.1567    -5.7961 C.2     
  69 O69          -27.5702   -48.2099    -5.1588 O.2     
  70 N70          -29.1765   -49.7022    -5.4981 N.am    
  71 C71          -23.0183   -45.3424    -9.7901 C.3     
  72 C72          -22.7441   -46.4839    -8.8089 C.3     
  73 C73          -22.4301   -45.9135    -7.4498 C.2     
  74 N74          -23.9270   -47.3431    -8.7164 N.am    
  75 O75          -23.1259   -46.1969    -6.4977 O.2     
  76 C76          -23.1728   -45.9017   -11.1809 C.2     
  77 N77          -23.3348   -45.0688   -12.2280 N.am    
  78 O78          -23.1515   -47.1013   -11.3579 O.2     
  79 C79          -20.2203   -45.5324    -5.1831 C.3     
  80 C80          -21.0707   -44.5341    -5.9711 C.3     
  81 C81          -20.3101   -43.2430    -6.1316 C.2     
  82 N82          -21.3760   -45.0886    -7.2923 N.am    
  83 O83          -20.0488   -42.8270    -7.2405 O.2     
  84 C84          -21.0380   -46.7969    -4.9123 C.3     
  85 C85          -20.1505   -47.8429    -4.2348 C.3     
  86 C86          -22.2153   -46.4565    -3.9963 C.3     
  87 C87          -20.1680   -40.1435    -5.3974 C.3     
  88 C88          -19.1810   -41.2956    -5.1990 C.3     
  89 C89          -18.3549   -41.0424    -3.9643 C.2     
  90 N90          -19.9204   -42.5507    -5.0429 N.am    
  91 O91          -18.3812   -41.8325    -3.0445 O.2     
  92 O92          -20.9499   -39.9769    -4.2130 O.3     
  93 C93          -15.4501   -40.4321    -2.7999 C.3     
  94 C94          -16.7838   -39.6918    -2.6818 C.3     
  95 C95          -16.5271   -38.2132    -2.5437 C.2     
  96 N96          -17.5869   -39.9379    -3.8821 N.am    
  97 O97          -16.9713   -37.4412    -3.3668 O.2     
  98 C98          -15.7038   -41.9409    -2.8147 C.3     
  99 C99          -14.3901   -42.6701    -2.9310 C.2     
 100 O100         -13.3530   -42.0446    -2.9956 O.2     
 101 N101         -14.3677   -44.0173    -2.9632 N.am    
 102 C102         -16.7349   -35.6539    -0.6534 C.3     
 103 C103         -15.5545   -36.3116    -1.3711 C.3     
 104 C104         -14.2956   -36.0928    -0.5721 C.2     
 105 N105         -15.8040   -37.7489    -1.5054 N.am    
 106 O106         -13.7859   -37.0191     0.0222 O.2     
 107 C107         -17.9851   -35.7556    -1.5294 C.3     
 108 C108         -16.9847   -36.3674     0.6767 C.3     
 109 C109         -11.3080   -34.9985    -0.7793 C.3     
 110 C110         -12.4597   -34.6755     0.1748 C.3     
 111 C111         -12.3469   -33.2439     0.6319 C.2     
 112 N112         -13.7362   -34.8678    -0.5179 N.am    
 113 O113         -13.2445   -32.4614     0.4017 O.2     
 114 C114         -11.3502   -36.4834    -1.1453 C.3     
 115 C115         -10.2158   -36.8016    -2.0850 C.2     
 116 O116          -9.4520   -35.9300    -2.4269 O.2     
 117 O117         -10.0539   -38.0532    -2.5422 O.3     
 118 C118         -11.8376   -31.2813     3.0925 C.3     
 119 C119         -11.1391   -31.4416     1.7408 C.3     
 120 C120          -9.6848   -31.0718     1.8799 C.2     
 121 N121         -11.2487   -32.8332     1.2964 N.am    
 122 O122          -8.8246   -31.8901     1.6323 O.2     
 123 C123         -13.3370   -31.5358     2.9251 C.3     
 124 C124         -14.0251   -31.3779     4.2565 C.2     
 125 O125         -13.3798   -31.0901     5.2422 O.2     
 126 N126         -15.3576   -31.5564     4.3518 N.am    
 127 C127          -7.8183   -27.9245     2.1110 C.3     
 128 C128          -7.9294   -29.4374     2.3098 C.3     
 129 C129          -7.3309   -29.8145     3.6405 C.2     
 130 N130          -9.3401   -29.8316     2.2796 N.am    
 131 O131          -8.0153   -30.3589     4.4808 O.2     
 132 C132          -8.2676   -27.5666     0.7177 C.2     
 133 O133          -8.7118   -28.4211    -0.0119 O.2     
 134 O134          -8.1742   -26.2986     0.2874 O.3     
 135 C135          -5.4533   -29.9133     5.1903 C.3     
 136 C136          -4.0022   -29.5078     5.2214 C.2     
 137 N137          -6.0351   -29.5467     3.8967 N.am    
 138 O138          -3.5032   -28.9660     4.2580 O.2     
 139 C139          -1.7374   -27.8871     6.7740 C.3     
 140 C140          -1.8484   -29.3531     6.3502 C.3     
 141 C141          -1.1060   -30.2184     7.3357 C.2     
 142 N142          -3.2590   -29.7473     6.3200 N.am    
 143 O143          -1.6971   -31.0796     7.9521 O.2     
 144 N144          -2.8909   -24.6811     5.1138 N.pl3   
 145 C145          -2.9119   -23.3163     5.2782 C.2     
 146 N146          -2.3815   -22.7796     6.3410 N.2     
 147 N147          -3.4923   -22.5175     4.3215 N.pl3   
 148 C148          -2.3834   -26.9982     5.7094 C.3     
 149 C149          -2.2725   -25.5322     6.1332 C.3     
 150 C150           1.3674   -32.1750     7.8051 C.3     
 151 C151           0.9364   -30.8765     8.4901 C.3     
 152 C152           2.1551   -30.1415     8.9856 C.2     
 153 N153           0.2147   -30.0353     7.5321 N.am    
 154 O154           2.3970   -29.0249     8.5787 O.2     
 155 O155           2.3125   -31.8791     6.7749 O.3     
 156 C156           0.1435   -32.8594     7.1932 C.3     
 157 C157           4.0083   -29.3229    11.5988 C.3     
 158 C158           4.2209   -30.0604    10.2752 C.3     
 159 C159           5.3086   -31.0899    10.4429 C.2     
 160 N160           2.9762   -30.7249     9.8811 N.am    
 161 O161           5.0575   -32.2671    10.2946 O.2     
 162 C162           3.0300   -28.1659    11.3864 C.3     
 163 C163           3.4357   -30.2911    12.6359 C.3     
 164 C164           4.4769   -31.3639    12.9616 C.3     
 165 C165           7.6411   -31.6901    10.8127 C.3     
 166 C166           8.9304   -31.0040    11.1840 C.2     
 167 N167           6.5605   -30.7024    10.7578 N.am    
 168 O168           8.9452   -29.8077    11.3832 O.2     
 169 C169          11.4848   -30.7693    13.0464 C.3     
 170 C170          11.3395   -31.0392    11.5474 C.3     
 171 C171          12.4768   -31.9114    11.0815 C.2     
 172 N172          10.0670   -31.7197    11.2948 N.am    
 173 O173          12.3454   -33.1168    11.0560 O.2     
 174 C174          11.4917   -32.0977    13.8055 C.3     
 175 C175          12.7970   -30.0266    13.3060 C.3     
 176 C176          12.7275   -28.6334    12.6775 C.3     
 177 C177          15.6193   -31.3573     9.2569 C.3     
 178 C178          14.7180   -32.1932    10.1679 C.3     
 179 C179          15.5306   -32.7412    11.3126 C.2     
 180 N180          13.6398   -31.3519    10.6932 N.am    
 181 O181          15.5858   -32.1354    12.3618 O.2     
 182 C182          16.2614   -30.2309    10.0691 C.3     
 183 C183          16.7139   -32.2481     8.6661 C.3     
 184 C184          17.5111   -31.4559     7.6279 C.3     
 185 H185          16.0943   -34.4254    10.3584 H       
 186 H186          16.7798   -34.2191    11.8784 H       
 187 H187         -31.7609   -70.2769    -5.6532 H       
 188 H188         -30.0708   -70.4865    -5.1359 H       
 189 H189         -30.8425   -71.0821    -2.8559 H       
 190 H190         -32.5327   -70.8725    -3.3732 H       
 191 H191         -32.2356   -72.6589    -5.0672 H       
 192 H192         -30.5454   -72.8684    -4.5499 H       
 193 H193         -31.3172   -73.4640    -2.2699 H       
 194 H194         -33.0073   -73.2545    -2.7872 H       
 195 H195         -32.7103   -75.0408    -4.4812 H       
 196 H196         -31.0201   -75.2503    -3.9638 H       
 197 H197         -31.7918   -75.8460    -1.6839 H       
 198 H198         -33.4820   -75.6364    -2.2012 H       
 199 H199         -33.1850   -77.4227    -3.8952 H       
 200 H200         -31.4948   -77.6323    -3.3778 H       
 201 H201         -32.2665   -78.2279    -1.0978 H       
 202 H202         -33.9567   -78.0184    -1.6152 H       
 203 H203         -33.6597   -79.8047    -3.3091 H       
 204 H204         -31.9695   -80.0142    -2.7918 H       
 205 H205         -32.7412   -80.6099    -0.5118 H       
 206 H206         -34.4314   -80.4003    -1.0291 H       
 207 H207         -34.1343   -82.1866    -2.7231 H       
 208 H208         -32.4442   -82.3962    -2.2058 H       
 209 H209         -33.2159   -82.9918     0.0742 H       
 210 H210         -34.9061   -82.7823    -0.4431 H       
 211 H211         -34.6090   -84.5686    -2.1371 H       
 212 H212         -32.9188   -84.7781    -1.6197 H       
 213 H213         -33.6906   -85.3738     0.6602 H       
 214 H214         -35.3807   -85.1642     0.1429 H       
 215 H215         -34.7217   -87.5539     0.0839 H       
 216 H216         -35.0837   -86.9505    -1.5511 H       
 217 H217         -33.3935   -87.1601    -1.0337 H       
 218 H218         -31.6299   -65.9831    -4.3423 H       
 219 H219         -29.9397   -66.1926    -3.8250 H       
 220 H220         -29.2887   -65.6325    -6.0985 H       
 221 H221         -31.6587   -62.1358    -6.4452 H       
 222 H222         -30.6224   -61.8440    -7.8627 H       
 223 H223         -29.0403   -63.5979    -7.0065 H       
 224 H224         -31.0596   -63.7003    -4.9070 H       
 225 H225         -33.0451   -65.3100    -9.2298 H       
 226 H226         -35.8805   -65.1013   -11.2599 H       
 227 H227         -34.6651   -62.2165    -9.7775 H       
 228 H228         -35.8641   -62.8317   -10.7807 H       
 229 H229         -30.8645   -64.2202    -8.5288 H       
 230 H230         -31.9008   -64.5120    -7.1114 H       
 231 H231         -32.4873   -62.5449    -9.3704 H       
 232 H232         -33.5236   -62.8367    -7.9530 H       
 233 H233         -28.2972   -59.5099    -4.9867 H       
 234 H234         -28.6195   -60.9801    -7.4891 H       
 235 H235         -26.3531   -62.7884    -6.1118 H       
 236 H236         -26.2006   -64.5762    -4.4255 H       
 237 H237         -26.0175   -64.0039    -2.0376 H       
 238 H238         -25.9911   -61.6439    -1.3357 H       
 239 H239         -26.1482   -59.8562    -3.0216 H       
 240 H240         -25.9128   -60.4601    -6.6362 H       
 241 H241         -25.8258   -59.2363    -5.3466 H       
 242 H242         -28.8435   -55.2590    -6.1677 H       
 243 H243         -28.7893   -54.6352    -7.8339 H       
 244 H244         -27.4001   -56.6256    -8.4823 H       
 245 H245         -26.8865   -57.3254    -5.6941 H       
 246 H246         -30.4939   -57.3314    -5.7913 H       
 247 H247         -32.2932   -58.5715    -7.1197 H       
 248 H248         -30.1025   -56.1071    -9.7253 H       
 249 H249         -23.0207   -53.0310    -8.3562 H       
 250 H250         -24.8131   -53.2881    -6.6084 H       
 251 H251         -26.8174   -53.9976    -8.6102 H       
 252 H252         -22.4677   -55.4375    -8.4669 H       
 253 H253         -23.1113   -55.0174    -6.8614 H       
 254 H254         -24.1468   -55.8509    -8.0451 H       
 255 H255         -24.9924   -54.6366   -10.0447 H       
 256 H256         -24.5251   -52.9422   -10.3253 H       
 257 H257         -23.3186   -54.2390   -10.5011 H       
 258 H258         -25.2926   -48.9954    -6.1161 H       
 259 H259         -26.0846   -47.8833    -7.2581 H       
 260 H260         -25.6052   -49.5166    -9.1060 H       
 261 H261         -23.7352   -51.0266    -7.4475 H       
 262 H262         -27.7136   -49.6552    -7.8539 H       
 263 H263         -26.9216   -50.7673    -6.7119 H       
 264 H264         -29.5047   -50.4594    -6.0078 H       
 265 H265         -29.7089   -49.3376    -4.7738 H       
 266 H266         -23.9347   -44.8275    -9.5016 H       
 267 H267         -22.1854   -44.6395    -9.7716 H       
 268 H268         -21.8957   -47.0703    -9.1616 H       
 269 H269         -24.8084   -46.9748    -8.8853 H       
 270 H270         -23.3519   -44.1093   -12.0864 H       
 271 H271         -23.4343   -45.4288   -13.1232 H       
 272 H272         -19.3333   -45.7903    -5.7617 H       
 273 H273         -19.9188   -45.0850    -4.2360 H       
 274 H274         -21.9996   -44.3441    -5.4333 H       
 275 H275         -20.8195   -44.8619    -8.0538 H       
 276 H276         -21.4142   -47.1951    -5.8547 H       
 277 H277         -19.7743   -47.4447    -3.2924 H       
 278 H278         -20.7330   -48.7437    -4.0419 H       
 279 H279         -19.3117   -48.0854    -4.8873 H       
 280 H280         -21.8391   -46.0583    -3.0540 H       
 281 H281         -22.8476   -45.7113    -4.4791 H       
 282 H282         -22.7979   -47.3573    -3.8034 H       
 283 H283         -19.6179   -39.2250    -5.6018 H       
 284 H284         -20.8248   -40.3684    -6.2377 H       
 285 H285         -18.5252   -41.3658    -6.0668 H       
 286 H286         -20.1294   -42.8834    -4.1561 H       
 287 H287         -21.5987   -39.2619    -4.2673 H       
 288 H288         -14.9520   -40.1383    -3.7239 H       
 289 H289         -14.8172   -40.1785    -1.9495 H       
 290 H290         -17.3222   -40.0506    -1.8046 H       
 291 H291         -17.5659   -39.3060    -4.6178 H       
 292 H292         -16.2019   -42.2346    -1.8908 H       
 293 H293         -16.3367   -42.1945    -3.6652 H       
 294 H294         -15.1972   -44.5175    -2.9115 H       
 295 H295         -13.5221   -44.4866    -3.0380 H       
 296 H296         -16.5071   -34.6047    -0.4657 H       
 297 H297         -15.4384   -35.8690    -2.3604 H       
 298 H298         -15.4488   -38.3665    -0.8471 H       
 299 H299         -18.8261   -35.2870    -1.0181 H       
 300 H300         -17.8071   -35.2473    -2.4771 H       
 301 H301         -18.2130   -36.8048    -1.7171 H       
 302 H302         -16.1269   -36.2226     1.3335 H       
 303 H303         -17.8769   -35.9553     1.1481 H       
 304 H304         -17.1283   -37.4328     0.4962 H       
 305 H305         -11.4064   -34.3984    -1.6839 H       
 306 H306         -10.3592   -34.7708    -0.2936 H       
 307 H307         -12.4120   -35.3377     1.0392 H       
 308 H308         -14.1788   -34.1136    -0.9375 H       
 309 H309         -11.2518   -37.0836    -0.2407 H       
 310 H310         -12.2991   -36.7111    -1.6310 H       
 311 H311          -9.3121   -38.2087    -3.1427 H       
 312 H312         -11.4245   -31.9980     3.8023 H       
 313 H313         -11.6803   -30.2691     3.4650 H       
 314 H314         -11.6117   -30.7878     1.0078 H       
 315 H315         -10.5309   -33.4591     1.4805 H       
 316 H316         -13.7502   -30.8191     2.2153 H       
 317 H317         -13.4943   -32.5480     2.5526 H       
 318 H318         -15.8737   -31.7866     3.5634 H       
 319 H319         -15.8005   -31.4548     5.2088 H       
 320 H320          -8.4501   -27.4150     2.8386 H       
 321 H321          -6.7824   -27.6150     2.2494 H       
 322 H322          -7.3919   -29.9493     1.5116 H       
 323 H323         -10.0260   -29.2001     2.5471 H       
 324 H324          -8.4749   -26.1175    -0.6137 H       
 325 H325          -5.5324   -30.9911     5.3320 H       
 326 H326          -5.9908   -29.4015     5.9886 H       
 327 H327          -5.4877   -29.1113     3.2246 H       
 328 H328          -2.2491   -27.7443     7.7258 H       
 329 H329          -0.6866   -27.6188     6.8826 H       
 330 H330          -1.4147   -29.4782     5.3581 H       
 331 H331          -3.6581   -30.1806     7.0906 H       
 332 H332          -3.2857   -25.0804     4.3228 H       
 333 H333          -2.3963   -21.8167     6.4570 H       
 334 H334          -3.8870   -22.9168     3.5305 H       
 335 H335          -3.5071   -21.5545     4.4375 H       
 336 H336          -1.8717   -27.1409     4.7576 H       
 337 H337          -3.4342   -27.2665     5.6008 H       
 338 H338          -1.2216   -25.2639     6.2418 H       
 339 H339          -2.7841   -25.3895     7.0850 H       
 340 H340           1.8256   -32.8381     8.5389 H       
 341 H341           0.2848   -31.1090     9.3324 H       
 342 H342           0.6875   -29.3465     7.0391 H       
 343 H343           2.6300   -32.6575     6.2971 H       
 344 H344          -0.3147   -32.1962     6.4594 H       
 345 H345           0.4505   -33.7844     6.7053 H       
 346 H346          -0.5774   -33.0851     7.9791 H       
 347 H347           4.9618   -28.9320    11.9541 H       
 348 H348           4.5117   -29.3469     9.5043 H       
 349 H349           2.7430   -31.5849    10.2646 H       
 350 H350           2.0892   -28.5527    10.9949 H       
 351 H351           2.8490   -27.6640    12.3369 H       
 352 H352           3.4549   -27.4565    10.6762 H       
 353 H353           3.1824   -29.7432    13.5435 H       
 354 H354           2.5394   -30.7644    12.2351 H       
 355 H355           4.1778   -31.8986    13.8631 H       
 356 H356           4.5483   -32.0651    12.1301 H       
 357 H357           5.4461   -30.8923    13.1235 H       
 358 H358           7.7497   -32.1644     9.8373 H       
 359 H359           7.4038   -32.4470    11.5603 H       
 360 H360           6.7460   -29.7695    10.9480 H       
 361 H361          10.6484   -30.1597    13.3885 H       
 362 H362          11.3603   -30.0943    11.0044 H       
 363 H363          10.0425   -32.6855    11.2073 H       
 364 H364          12.2817   -32.7371    13.4115 H       
 365 H365          11.6702   -31.9102    14.8643 H       
 366 H366          10.5283   -32.5921    13.6814 H       
 367 H367          12.9550   -29.9330    14.3804 H       
 368 H368          13.6233   -30.5837    12.8644 H       
 369 H369          12.6650   -28.7267    11.5933 H       
 370 H370          11.8459   -28.1109    13.0487 H       
 371 H371          13.6222   -28.0701    12.9427 H       
 372 H372          15.0240   -30.9297     8.4501 H       
 373 H373          14.2904   -33.0182     9.5982 H       
 374 H374          13.7630   -30.3922    10.7616 H       
 375 H375          16.8567   -30.6585    10.8759 H       
 376 H376          16.9035   -29.6355     9.4200 H       
 377 H377          15.4816   -29.5963    10.4900 H       
 378 H378          17.3816   -32.5793     9.4615 H       
 379 H379          16.2583   -33.1160     8.1894 H       
 380 H380          18.2910   -32.0906     7.2070 H       
 381 H381          16.8434   -31.1248     6.8325 H       
 382 H382          17.9668   -30.5881     8.1046 H       
@<TRIPOS>BOND
   1    1  179 am
   2    1  185 1
   3    1  186 1
   4    2   20 1
   5    2    3 2
   6    2    4 1
   7    4    5 1
   8    4  187 1
   9    4  188 1
  10    5    6 1
  11    5  189 1
  12    5  190 1
  13    6    7 1
  14    6  191 1
  15    6  192 1
  16    7    8 1
  17    7  193 1
  18    7  194 1
  19    8    9 1
  20    8  195 1
  21    8  196 1
  22    9   10 1
  23    9  197 1
  24    9  198 1
  25   10   11 1
  26   10  199 1
  27   10  200 1
  28   11   12 1
  29   11  201 1
  30   11  202 1
  31   12   13 1
  32   12  203 1
  33   12  204 1
  34   13   14 1
  35   13  205 1
  36   13  206 1
  37   14   15 1
  38   14  207 1
  39   14  208 1
  40   15   16 1
  41   15  209 1
  42   15  210 1
  43   16   17 1
  44   16  211 1
  45   16  212 1
  46   17   18 1
  47   17  213 1
  48   17  214 1
  49   18  215 1
  50   18  216 1
  51   18  217 1
  52   19   20 1
  53   19   21 1
  54   19  218 1
  55   19  219 1
  56   20   22 2
  57   21   26 1
  58   21  220 1
  59   23   32 1
  60   23   24 1
  61   23  221 1
  62   23  222 1
  63   24   26 1
  64   24   25 1
  65   24  223 1
  66   25   27 2
  67   25   36 am
  68   26  224 1
  69   28   33 1
  70   28   29 1
  71   28  225 1
  72   29   30 2
  73   29   31 1
  74   30  226 1
  75   31  227 1
  76   31  228 1
  77   32   33 1
  78   32  229 1
  79   32  230 1
  80   33  231 1
  81   33  232 1
  82   34   35 1
  83   34   36 1
  84   34   44 1
  85   34  233 1
  86   35   37 2
  87   35   48 am
  88   36  234 1
  89   38   39 ar
  90   38   43 ar
  91   38  235 1
  92   39   40 ar
  93   39  236 1
  94   40   41 ar
  95   40  237 1
  96   41   42 ar
  97   41  238 1
  98   42   43 ar
  99   42  239 1
 100   43   44 1
 101   44  240 1
 102   44  241 1
 103   45   50 1
 104   45   46 1
 105   45  242 1
 106   45  243 1
 107   46   47 1
 108   46   48 1
 109   46  244 1
 110   47   49 2
 111   47   58 am
 112   48  245 1
 113   50   51 1
 114   50   54 2
 115   51   52 1
 116   51  246 1
 117   52   53 2
 118   52  247 1
 119   53   54 1
 120   54  248 1
 121   55   60 1
 122   55   61 1
 123   55   56 1
 124   55  249 1
 125   56   58 1
 126   56   57 1
 127   56  250 1
 128   57   59 2
 129   57   65 am
 130   58  251 1
 131   60  252 1
 132   60  253 1
 133   60  254 1
 134   61  255 1
 135   61  256 1
 136   61  257 1
 137   62   67 1
 138   62   63 1
 139   62  258 1
 140   62  259 1
 141   63   65 1
 142   63   64 1
 143   63  260 1
 144   64   66 2
 145   64   74 am
 146   65  261 1
 147   67   68 1
 148   67  262 1
 149   67  263 1
 150   68   69 2
 151   68   70 am
 152   70  264 1
 153   70  265 1
 154   71   76 1
 155   71   72 1
 156   71  266 1
 157   71  267 1
 158   72   74 1
 159   72   73 1
 160   72  268 1
 161   73   75 2
 162   73   82 am
 163   74  269 1
 164   76   77 am
 165   76   78 2
 166   77  270 1
 167   77  271 1
 168   79   84 1
 169   79   80 1
 170   79  272 1
 171   79  273 1
 172   80   82 1
 173   80   81 1
 174   80  274 1
 175   81   83 2
 176   81   90 am
 177   82  275 1
 178   84   85 1
 179   84   86 1
 180   84  276 1
 181   85  277 1
 182   85  278 1
 183   85  279 1
 184   86  280 1
 185   86  281 1
 186   86  282 1
 187   87   92 1
 188   87   88 1
 189   87  283 1
 190   87  284 1
 191   88   90 1
 192   88   89 1
 193   88  285 1
 194   89   91 2
 195   89   96 am
 196   90  286 1
 197   92  287 1
 198   93   98 1
 199   93   94 1
 200   93  288 1
 201   93  289 1
 202   94   96 1
 203   94   95 1
 204   94  290 1
 205   95   97 2
 206   95  105 am
 207   96  291 1
 208   98   99 1
 209   98  292 1
 210   98  293 1
 211   99  100 2
 212   99  101 am
 213  101  294 1
 214  101  295 1
 215  102  107 1
 216  102  108 1
 217  102  103 1
 218  102  296 1
 219  103  105 1
 220  103  104 1
 221  103  297 1
 222  104  106 2
 223  104  112 am
 224  105  298 1
 225  107  299 1
 226  107  300 1
 227  107  301 1
 228  108  302 1
 229  108  303 1
 230  108  304 1
 231  109  114 1
 232  109  110 1
 233  109  305 1
 234  109  306 1
 235  110  112 1
 236  110  111 1
 237  110  307 1
 238  111  113 2
 239  111  121 am
 240  112  308 1
 241  114  115 1
 242  114  309 1
 243  114  310 1
 244  115  116 2
 245  115  117 1
 246  117  311 1
 247  118  123 1
 248  118  119 1
 249  118  312 1
 250  118  313 1
 251  119  121 1
 252  119  120 1
 253  119  314 1
 254  120  122 2
 255  120  130 am
 256  121  315 1
 257  123  124 1
 258  123  316 1
 259  123  317 1
 260  124  125 2
 261  124  126 am
 262  126  318 1
 263  126  319 1
 264  127  132 1
 265  127  128 1
 266  127  320 1
 267  127  321 1
 268  128  129 1
 269  128  130 1
 270  128  322 1
 271  129  131 2
 272  129  137 am
 273  130  323 1
 274  132  133 2
 275  132  134 1
 276  134  324 1
 277  135  136 1
 278  135  137 1
 279  135  325 1
 280  135  326 1
 281  136  138 2
 282  136  142 am
 283  137  327 1
 284  139  148 1
 285  139  140 1
 286  139  328 1
 287  139  329 1
 288  140  142 1
 289  140  141 1
 290  140  330 1
 291  141  143 2
 292  141  153 am
 293  142  331 1
 294  144  149 1
 295  144  145 1
 296  144  332 1
 297  145  146 2
 298  145  147 1
 299  146  333 1
 300  147  334 1
 301  147  335 1
 302  148  149 1
 303  148  336 1
 304  148  337 1
 305  149  338 1
 306  149  339 1
 307  150  151 1
 308  150  155 1
 309  150  156 1
 310  150  340 1
 311  151  153 1
 312  151  152 1
 313  151  341 1
 314  152  154 2
 315  152  160 am
 316  153  342 1
 317  155  343 1
 318  156  344 1
 319  156  345 1
 320  156  346 1
 321  157  158 1
 322  157  162 1
 323  157  163 1
 324  157  347 1
 325  158  160 1
 326  158  159 1
 327  158  348 1
 328  159  161 2
 329  159  167 am
 330  160  349 1
 331  162  350 1
 332  162  351 1
 333  162  352 1
 334  163  164 1
 335  163  353 1
 336  163  354 1
 337  164  355 1
 338  164  356 1
 339  164  357 1
 340  165  166 1
 341  165  167 1
 342  165  358 1
 343  165  359 1
 344  166  168 2
 345  166  172 am
 346  167  360 1
 347  169  170 1
 348  169  174 1
 349  169  175 1
 350  169  361 1
 351  170  172 1
 352  170  171 1
 353  170  362 1
 354  171  173 2
 355  171  180 am
 356  172  363 1
 357  174  364 1
 358  174  365 1
 359  174  366 1
 360  175  176 1
 361  175  367 1
 362  175  368 1
 363  176  369 1
 364  176  370 1
 365  176  371 1
 366  177  178 1
 367  177  182 1
 368  177  183 1
 369  177  372 1
 370  178  180 1
 371  178  179 1
 372  178  373 1
 373  179  181 2
 374  180  374 1
 375  182  375 1
 376  182  376 1
 377  182  377 1
 378  183  184 1
 379  183  378 1
 380  183  379 1
 381  184  380 1
 382  184  381 1
 383  184  382 1

#	End of record

