#	Name: ASD01812479
#	Creating user name:	WinNT
#	Creation time:	15. 06. 2019 19:28

#	Modifying user name:	WinNT
#	Modification time:	15. 06. 2019 19:28

#	Program:	/corina/corina34_cracker 3.40 0067  02.08.2006

@<TRIPOS>MOLECULE
ASD01812479
  56   59    0    0    0
SMALL
NO_CHARGES


@<TRIPOS>ATOM
   1 C1            -0.0215     1.4793     0.0503 C.ar    
   2 C2            -0.0905     0.1544     0.4427 C.ar    
   3 C3             1.0704    -0.5756     0.6194 C.ar    
   4 C4             2.2996     0.0144     0.4034 C.ar    
   5 C5             2.3790     1.3467     0.0077 C.ar    
   6 C6             1.2127     2.0799    -0.1669 C.ar    
   7 N7             3.6424     1.9068    -0.2068 N.3     
   8 C8             3.6137     3.3730    -0.1532 C.3     
   9 C9             2.4874     3.8744    -1.0664 C.3     
  10 O10            1.2470     3.3885    -0.5431 O.3     
  11 C11            4.6263     1.3646     0.7397 C.3     
  12 C12            5.9936     1.9041     0.4072 C.ar    
  13 C13            6.7607     1.2910    -0.5656 C.ar    
  14 C14            6.4782     3.0155     1.0711 C.ar    
  15 C15            7.7324     3.5104     0.7661 C.ar    
  16 C16            8.5021     2.8936    -0.2024 C.ar    
  17 C17            8.0149     1.7859    -0.8706 C.ar    
  18 N18            3.5078     6.0550    -1.6339 N.am    
  19 C19            2.4776     5.3812    -1.0850 C.2     
  20 O20            1.5428     5.9876    -0.6060 O.2     
  21 C21            9.8692     3.4335    -0.5352 C.3     
  22 C22            3.4983     7.5199    -1.6519 C.3     
  23 F23           10.8245     2.8198     0.2821 F       
  24 F24           10.1622     3.1661    -1.8768 F       
  25 F25            9.8899     4.8156    -0.3198 F       
  26 C26            4.3714     8.0214    -2.8040 C.3     
  27 C27            4.3615     9.5512    -2.8228 C.3     
  28 C28            4.9123    10.0812    -1.4974 C.3     
  29 C29            4.0392     9.5797    -0.3454 C.3     
  30 C30            4.0491     8.0499    -0.3265 C.3     
  31 O31            3.8570     7.5264    -4.0419 O.3     
  32 F32           -1.1570     2.1893    -0.1275 F       
  33 H33           -1.0511    -0.3095     0.6114 H       
  34 H34            1.0154    -1.6093     0.9274 H       
  35 H35            3.2035    -0.5601     0.5423 H       
  36 H36            3.4269     3.6981     0.8703 H       
  37 H37            4.5683     3.7706    -0.4977 H       
  38 H38            2.6354     3.4941    -2.0771 H       
  39 H39            4.3560     1.6596     1.7536 H       
  40 H40            4.6378     0.2770     0.6687 H       
  41 H41            6.3804     0.4251    -1.0871 H       
  42 H42            5.8769     3.4974     1.8278 H       
  43 H43            8.1108     4.3792     1.2843 H       
  44 H44            8.6144     1.3067    -1.6304 H       
  45 H45            4.2554     5.5701    -2.0169 H       
  46 H46            2.4769     7.8750    -1.7889 H       
  47 H47            5.3928     7.6663    -2.6670 H       
  48 H48            4.9835     9.9085    -3.6435 H       
  49 H49            3.3401     9.9063    -2.9598 H       
  50 H50            5.9337     9.7261    -1.3604 H       
  51 H51            4.9052    11.1711    -1.5109 H       
  52 H52            4.4315     9.9573     0.5989 H       
  53 H53            3.0178     9.9348    -0.4824 H       
  54 H54            3.4271     7.6926     0.4942 H       
  55 H55            5.0705     7.6948    -0.1895 H       
  56 H56            4.3625     7.8055    -4.8175 H       
@<TRIPOS>BOND
   1    1    2 ar
   2    1    6 ar
   3    1   32 1
   4    2    3 ar
   5    2   33 1
   6    3    4 ar
   7    3   34 1
   8    4    5 ar
   9    4   35 1
  10    5    7 1
  11    5    6 ar
  12    6   10 1
  13    7   11 1
  14    7    8 1
  15    8    9 1
  16    8   36 1
  17    8   37 1
  18    9   10 1
  19    9   19 1
  20    9   38 1
  21   11   12 1
  22   11   39 1
  23   11   40 1
  24   12   14 ar
  25   12   13 ar
  26   13   17 ar
  27   13   41 1
  28   14   15 ar
  29   14   42 1
  30   15   16 ar
  31   15   43 1
  32   16   17 ar
  33   16   21 1
  34   17   44 1
  35   18   19 am
  36   18   22 1
  37   18   45 1
  38   19   20 2
  39   21   23 1
  40   21   24 1
  41   21   25 1
  42   22   26 1
  43   22   30 1
  44   22   46 1
  45   26   27 1
  46   26   31 1
  47   26   47 1
  48   27   28 1
  49   27   48 1
  50   27   49 1
  51   28   29 1
  52   28   50 1
  53   28   51 1
  54   29   30 1
  55   29   52 1
  56   29   53 1
  57   30   54 1
  58   30   55 1
  59   31   56 1

#	End of record

