#	Name: ASD05430359
#	Creating user name:	WinNT
#	Creation time:	15. 06. 2019 21:00

#	Modifying user name:	WinNT
#	Modification time:	15. 06. 2019 21:00

#	Program:	/corina/corina34_cracker 3.40 0067  02.08.2006

@<TRIPOS>MOLECULE
ASD05430359
  60   64    0    0    0
SMALL
NO_CHARGES


@<TRIPOS>ATOM
   1 C1            -0.1342     1.8943     0.8938 C.ar    
   2 C2             0.1227     0.7079     0.2070 C.ar    
   3 C3            -0.8801     0.1025    -0.5396 C.ar    
   4 C4            -2.1332     0.6713    -0.6056 C.ar    
   5 C5            -2.3982     1.8610     0.0806 C.ar    
   6 C6            -1.3903     2.4675     0.8368 C.ar    
   7 C7            -4.8274     1.6883    -0.0879 C.2     
   8 C8            -3.7362     2.4703     0.0113 C.2     
   9 N9            -7.2579     1.5676     0.1717 N.pl3   
  10 C10           -6.1657     2.2401    -0.3528 C.2     
  11 C11           -8.2832     2.7514     2.0081 C.ar    
  12 C12           -9.3579     3.2921     2.6891 C.ar    
  13 C13           -7.0649     2.6017     2.6441 C.ar    
  14 C14           -6.9201     2.9922     3.9618 C.ar    
  15 C15           -7.9957     3.5339     4.6449 C.ar    
  16 C16           -9.2153     3.6837     4.0068 C.ar    
  17 F17           -7.8555     3.9156     5.9333 F       
  18 O18            0.8495     2.4838     1.6239 O.3     
  19 C19            0.5162     3.6970     2.3015 C.3     
  20 C20            1.6793    -1.1830     0.5639 C.2     
  21 N21            1.3954     0.1257     0.2699 N.pl3   
  22 C22            3.0189    -1.3119     0.5151 C.2     
  23 N23            3.5434    -0.1182     0.2005 N.2     
  24 C24            2.5813     0.7511     0.0511 C.2     
  25 C25            3.7946    -2.5785     0.7705 C.3     
  26 O26           -7.1641     0.1675     0.3735 O.3     
  27 C27           -4.7568     0.1756     0.0602 C.3     
  28 C28           -5.9268    -0.2607     0.9523 C.3     
  29 C29           -8.4416     2.3190     0.5732 C.3     
  30 C30           -8.6607     3.5515    -0.2931 C.3     
  31 C31           -7.7447     3.5773    -1.5087 C.3     
  32 N32           -6.3602     3.2748    -1.1186 N.2     
  33 C33           -9.6676     1.4103     0.4632 C.3     
  34 H34           -0.6769    -0.8161    -1.0699 H       
  35 H35           -2.9107     0.1988    -1.1874 H       
  36 H36           -1.5907     3.3861     1.3681 H       
  37 H37           -3.8425     3.5446     0.0400 H       
  38 H38          -10.3091     3.4089     2.1912 H       
  39 H39           -6.2260     2.1791     2.1110 H       
  40 H40           -5.9684     2.8745     4.4587 H       
  41 H41          -10.0549     4.1065     4.5385 H       
  42 H42            1.3881     4.0611     2.8449 H       
  43 H43            0.2031     4.4455     1.5736 H       
  44 H44           -0.2970     3.5098     3.0028 H       
  45 H45            0.9659    -1.9602     0.7949 H       
  46 H46            2.7070     1.7930    -0.2039 H       
  47 H47            3.9224    -3.1213    -0.1661 H       
  48 H48            4.7725    -2.3288     1.1821 H       
  49 H49            3.2499    -3.2013     1.4800 H       
  50 H50           -4.8428    -0.2960    -0.9188 H       
  51 H51           -3.8123    -0.1065     0.5254 H       
  52 H52           -5.8153     0.1860     1.9403 H       
  53 H53           -5.9267    -1.3467     1.0447 H       
  54 H54           -9.6967     3.5653    -0.6315 H       
  55 H55           -8.4756     4.4422     0.3073 H       
  56 H56           -8.0850     2.8354    -2.2310 H       
  57 H57           -7.7815     4.5663    -1.9656 H       
  58 H58           -9.5401     0.5474     1.1168 H       
  59 H59          -10.5580     1.9637     0.7615 H       
  60 H60           -9.7781     1.0723    -0.5672 H       
@<TRIPOS>BOND
   1    1    2 ar
   2    1   18 1
   3    1    6 ar
   4    2    3 ar
   5    2   21 1
   6    3    4 ar
   7    3   34 1
   8    4    5 ar
   9    4   35 1
  10    5    6 ar
  11    5    8 1
  12    6   36 1
  13    7    8 2
  14    7   27 1
  15    7   10 1
  16    8   37 1
  17    9   10 1
  18    9   26 1
  19    9   29 1
  20   10   32 2
  21   11   12 ar
  22   11   13 ar
  23   11   29 1
  24   12   16 ar
  25   12   38 1
  26   13   14 ar
  27   13   39 1
  28   14   15 ar
  29   14   40 1
  30   15   16 ar
  31   15   17 1
  32   16   41 1
  33   18   19 1
  34   19   42 1
  35   19   43 1
  36   19   44 1
  37   20   21 1
  38   20   22 2
  39   20   45 1
  40   21   24 1
  41   22   23 1
  42   22   25 1
  43   23   24 2
  44   24   46 1
  45   25   47 1
  46   25   48 1
  47   25   49 1
  48   26   28 1
  49   27   28 1
  50   27   50 1
  51   27   51 1
  52   28   52 1
  53   28   53 1
  54   29   30 1
  55   29   33 1
  56   30   31 1
  57   30   54 1
  58   30   55 1
  59   31   32 1
  60   31   56 1
  61   31   57 1
  62   33   58 1
  63   33   59 1
  64   33   60 1

#	End of record

