#	Name: ASD01151031
#	Creating user name:	WinNT
#	Creation time:	15. 06. 2019 19:05

#	Modifying user name:	WinNT
#	Modification time:	15. 06. 2019 19:05

#	Program:	/corina/corina34_cracker 3.40 0067  02.08.2006

@<TRIPOS>MOLECULE
ASD01151031
  31   30    0    0    0
SMALL
NO_CHARGES


@<TRIPOS>ATOM
   1 O1            -0.1249     1.5029     0.0198 O.3     
   2 C2            -0.0792     0.0746     0.0263 C.3     
   3 C3            -1.5046    -0.4813     0.0199 C.3     
   4 C4            -1.4557    -2.0105     0.0268 C.3     
   5 C5            -2.8764    -2.5657     0.1461 C.3     
   6 C6            -2.8192    -4.0889     0.2785 C.3     
   7 C7            -4.2186    -4.6358     0.3960 C.2     
   8 C8            -4.5387    -5.4042     1.4075 C.2     
   9 C9            -3.4772    -5.8524     2.3788 C.3     
  10 C10           -5.9684    -5.8401     1.5998 C.3     
  11 C11           -0.8219    -2.5064    -1.2745 C.3     
  12 H12            0.7454     1.9243     0.0234 H       
  13 H13            0.4515    -0.2759    -0.8589 H       
  14 H14            0.4405    -0.2682     0.9210 H       
  15 H15           -2.0353    -0.1308     0.9051 H       
  16 H16           -2.0243    -0.1385    -0.8748 H       
  17 H17           -0.8601    -2.3511     0.8738 H       
  18 H18           -3.3591    -2.1424     1.0269 H       
  19 H19           -3.4464    -2.2995    -0.7439 H       
  20 H20           -2.3364    -4.5123    -0.6023 H       
  21 H21           -2.2491    -4.3552     1.1686 H       
  22 H22           -4.9575    -4.3942    -0.3536 H       
  23 H23           -3.3310    -5.0836     3.1375 H       
  24 H24           -3.7911    -6.7801     2.8575 H       
  25 H25           -2.5419    -6.0178     1.8441 H       
  26 H26           -6.5861    -5.4206     0.8056 H       
  27 H27           -6.0241    -6.9281     1.5671 H       
  28 H28           -6.3292    -5.4866     2.5657 H       
  29 H29           -1.4175    -2.1658    -2.1215 H       
  30 H30            0.1902    -2.1109    -1.3595 H       
  31 H31           -0.7870    -3.5958    -1.2695 H       
@<TRIPOS>BOND
   1    1    2 1
   2    1   12 1
   3    2    3 1
   4    2   13 1
   5    2   14 1
   6    3    4 1
   7    3   15 1
   8    3   16 1
   9    4    5 1
  10    4   11 1
  11    4   17 1
  12    5    6 1
  13    5   18 1
  14    5   19 1
  15    6    7 1
  16    6   20 1
  17    6   21 1
  18    7    8 2
  19    7   22 1
  20    8    9 1
  21    8   10 1
  22    9   23 1
  23    9   24 1
  24    9   25 1
  25   10   26 1
  26   10   27 1
  27   10   28 1
  28   11   29 1
  29   11   30 1
  30   11   31 1

#	End of record

