#	Name: ASD01915992
#	Creating user name:	WinNT
#	Creation time:	15. 06. 2019 20:06

#	Modifying user name:	WinNT
#	Modification time:	15. 06. 2019 20:06

#	Program:	/corina/corina34_cracker 3.40 0067  02.08.2006

@<TRIPOS>MOLECULE
ASD01915992
  37   39    0    0    0
SMALL
NO_CHARGES


@<TRIPOS>ATOM
   1 C1            -0.4107     1.7407     0.1047 C.ar    
   2 C2            -0.5433     0.3904     0.3734 C.ar    
   3 N3             0.4998    -0.3395     0.7072 N.ar    
   4 C4             1.7177     0.1822     0.8002 C.ar    
   5 C5             1.9310     1.5329     0.5445 C.ar    
   6 C6             0.8471     2.3318     0.1894 C.ar    
   7 C7            -1.9024    -0.2545     0.2832 C.3     
   8 O8             1.0129     3.6540    -0.0686 O.3     
   9 C9             2.2646     4.1726     0.0365 C.ar    
  10 C10            3.1946     3.9762    -0.9741 C.ar    
  11 N11            4.4100     4.4774    -0.8773 N.ar    
  12 C12            4.7905     5.1792     0.1720 C.ar    
  13 C13            3.9196     5.4173     1.2208 C.ar    
  14 C14            2.6298     4.9129     1.1566 C.ar    
  15 C15            2.8592    -0.6821     1.1801 C.2     
  16 N16            2.6594    -1.9914     1.4296 N.am    
  17 O17            3.9758    -0.2106     1.2668 O.2     
  18 C18            3.7465    -2.8265     1.6838 C.ar    
  19 C19            3.5450    -4.1945     1.8248 C.ar    
  20 C20            4.6321    -5.0130     2.0770 C.ar    
  21 C21            5.8899    -4.4311     2.1798 C.ar    
  22 C22            6.0160    -3.0620     2.0282 C.ar    
  23 N23            4.9608    -2.3093     1.7830 N.ar    
  24 Cl24           4.4337     6.3425     2.5968 Cl      
  25 F25            6.9774    -5.1941     2.4256 F       
  26 H26           -1.2729     2.3293    -0.1723 H       
  27 H27            2.9219     1.9556     0.6209 H       
  28 H28           -2.0628    -0.6237    -0.7298 H       
  29 H29           -1.9574    -1.0860     0.9859 H       
  30 H30           -2.6699     0.4796     0.5281 H       
  31 H31            2.9199     3.4062    -1.8493 H       
  32 H32            5.7953     5.5731     0.2138 H       
  33 H33            1.9286     5.0830     1.9602 H       
  34 H34            1.7592    -2.3528     1.4322 H       
  35 H35            2.5532    -4.6132     1.7391 H       
  36 H36            4.5058    -6.0795     2.1916 H       
  37 H37            6.9910    -2.6041     2.1074 H       
@<TRIPOS>BOND
   1    1    2 ar
   2    1    6 ar
   3    1   26 1
   4    2    3 ar
   5    2    7 1
   6    3    4 ar
   7    4    5 ar
   8    4   15 1
   9    5    6 ar
  10    5   27 1
  11    6    8 1
  12    7   28 1
  13    7   29 1
  14    7   30 1
  15    8    9 1
  16    9   10 ar
  17    9   14 ar
  18   10   11 ar
  19   10   31 1
  20   11   12 ar
  21   12   13 ar
  22   12   32 1
  23   13   14 ar
  24   13   24 1
  25   14   33 1
  26   15   16 am
  27   15   17 2
  28   16   18 1
  29   16   34 1
  30   18   19 ar
  31   18   23 ar
  32   19   20 ar
  33   19   35 1
  34   20   21 ar
  35   20   36 1
  36   21   22 ar
  37   21   25 1
  38   22   23 ar
  39   22   37 1

#	End of record

