#	Name: ASD01120084
#	Creating user name:	WinNT
#	Creation time:	15. 06. 2019 18:58

#	Modifying user name:	WinNT
#	Modification time:	15. 06. 2019 18:58

#	Program:	/corina/corina34_cracker 3.40 0067  02.08.2006

@<TRIPOS>MOLECULE
ASD01120084
  54   57    0    0    0
SMALL
NO_CHARGES


@<TRIPOS>ATOM
   1 C1             0.8766     2.1716     0.5949 C.ar    
   2 C2             1.1494     0.7975     0.5443 C.ar    
   3 C3             0.1690    -0.1016     0.1871 C.ar    
   4 C4            -1.1129     0.3647    -0.1285 C.ar    
   5 C5            -1.3811     1.7551    -0.0751 C.ar    
   6 C6            -0.3685     2.6475     0.2965 C.ar    
   7 N7            -2.1028    -0.4697    -0.4829 N.ar    
   8 C8            -3.2939    -0.0032    -0.7734 C.ar    
   9 N9            -3.5903     1.2863    -0.7373 N.ar    
  10 C10           -2.6860     2.1963    -0.3998 C.ar    
  11 N11           -3.0094     3.5381    -0.3659 N.pl3   
  12 C12           -4.3311     3.9439    -0.5720 C.ar    
  13 C13           -5.3774     3.1629    -0.1048 C.ar    
  14 C14           -6.6925     3.5717    -0.3121 C.ar    
  15 C15           -6.9496     4.7634    -0.9880 C.ar    
  16 C16           -5.9023     5.5353    -1.4505 C.ar    
  17 C17           -4.5970     5.1335    -1.2403 C.ar    
  18 C18           -7.8167     2.7408     0.1845 C.2     
  19 C19           -9.1105     3.0808     0.0160 C.2     
  20 S20          -10.1004     1.8238     0.7534 S.3     
  21 C21           -8.6942     0.9684     1.2139 C.2     
  22 N22           -7.6379     1.5962     0.8280 N.2     
  23 C23           -8.6909    -0.3404     1.9611 C.3     
  24 O24            1.8610     3.0398     0.9504 O.3     
  25 C25            1.5213     4.4274     0.9835 C.3     
  26 O26            2.3941     0.3478     0.8506 O.3     
  27 C27            2.6092    -1.0633     0.7822 C.3     
  28 C28            4.0838    -1.3405     0.4828 C.3     
  29 C29            4.4299    -0.8103    -0.9100 C.3     
  30 C30            2.2316    -1.7021     2.1201 C.3     
  31 H31            0.3876    -1.1586     0.1502 H       
  32 H32           -0.5685     3.7081     0.3385 H       
  33 H33           -4.0672    -0.7025    -1.0551 H       
  34 H34           -2.3194     4.1992    -0.1991 H       
  35 H35           -5.1731     2.2402     0.4180 H       
  36 H36           -7.9684     5.0829    -1.1502 H       
  37 H37           -6.1038     6.4579    -1.9745 H       
  38 H38           -3.7814     5.7410    -1.6038 H       
  39 H39           -9.4753     3.9667    -0.4825 H       
  40 H40           -9.7176    -0.6493     2.1573 H       
  41 H41           -8.1913    -1.1004     1.3604 H       
  42 H42           -8.1614    -0.2180     2.9059 H       
  43 H43            1.1940     4.7451    -0.0065 H       
  44 H44            0.7164     4.5875     1.7010 H       
  45 H45            2.3943     5.0082     1.2814 H       
  46 H46            1.9918    -1.4869    -0.0099 H       
  47 H47            4.7055    -0.8416     1.2263 H       
  48 H48            4.2661    -2.4145     0.5184 H       
  49 H49            3.8082    -1.3092    -1.6535 H       
  50 H50            4.2476     0.2637    -0.9456 H       
  51 H51            5.4804    -1.0078    -1.1233 H       
  52 H52            1.1810    -1.5047     2.3334 H       
  53 H53            2.3956    -2.7785     2.0680 H       
  54 H54            2.8490    -1.2785     2.9122 H       
@<TRIPOS>BOND
   1    1    2 ar
   2    1   24 1
   3    1    6 ar
   4    2    3 ar
   5    2   26 1
   6    3    4 ar
   7    3   31 1
   8    4    5 ar
   9    4    7 ar
  10    5    6 ar
  11    5   10 ar
  12    6   32 1
  13    7    8 ar
  14    8    9 ar
  15    8   33 1
  16    9   10 ar
  17   10   11 1
  18   11   12 1
  19   11   34 1
  20   12   13 ar
  21   12   17 ar
  22   13   14 ar
  23   13   35 1
  24   14   15 ar
  25   14   18 1
  26   15   16 ar
  27   15   36 1
  28   16   17 ar
  29   16   37 1
  30   17   38 1
  31   18   19 2
  32   18   22 1
  33   19   20 1
  34   19   39 1
  35   20   21 1
  36   21   22 2
  37   21   23 1
  38   23   40 1
  39   23   41 1
  40   23   42 1
  41   24   25 1
  42   25   43 1
  43   25   44 1
  44   25   45 1
  45   26   27 1
  46   27   28 1
  47   27   30 1
  48   27   46 1
  49   28   29 1
  50   28   47 1
  51   28   48 1
  52   29   49 1
  53   29   50 1
  54   29   51 1
  55   30   52 1
  56   30   53 1
  57   30   54 1

#	End of record

