#	Name: ASD03092434
#	Creating user name:	WinNT
#	Creation time:	15. 06. 2019 20:32

#	Modifying user name:	WinNT
#	Modification time:	15. 06. 2019 20:32

#	Program:	/corina/corina34_cracker 3.40 0067  02.08.2006

@<TRIPOS>MOLECULE
ASD03092434
  62   65    0    0    0
SMALL
NO_CHARGES


@<TRIPOS>ATOM
   1 C1            -0.7444     1.1562    -0.2086 C.ar    
   2 C2            -0.9070    -0.2256    -0.2410 C.ar    
   3 C3             0.2144    -1.0367    -0.3386 C.ar    
   4 C4             1.4604    -0.4381    -0.4005 C.ar    
   5 C5             1.5519     0.9508    -0.3633 C.ar    
   6 N6             0.4675     1.6963    -0.2701 N.ar    
   7 C7            -1.9345     2.0330    -0.1108 C.2     
   8 O8            -3.0462     1.5450    -0.0593 O.2     
   9 N9            -1.7843     3.3720    -0.0790 N.am    
  10 O10            2.7704     1.5443    -0.4235 O.3     
  11 C11            2.7993     2.9723    -0.3810 C.3     
  12 C12           -2.9611     4.2391     0.0177 C.3     
  13 S13           -1.8363     8.0080     0.7445 S.3     
  14 C14           -1.9083     7.6024    -0.9145 C.2     
  15 N15           -2.2801     6.3662    -1.0606 N.2     
  16 C16           -2.5228     5.6808     0.0355 C.2     
  17 C17           -2.3460     6.3780     1.1773 C.2     
  18 C18           -3.4470     6.0747     4.7550 C.ar    
  19 C19           -3.2866     6.5917     3.4877 C.ar    
  20 C20           -2.5441     5.8653     2.5471 C.ar    
  21 C21           -1.9954     4.6383     2.9433 C.ar    
  22 C22           -2.2059     4.1977     4.2320 C.ar    
  23 N23           -2.9126     4.9140     5.0867 N.ar    
  24 C24           -1.6216     2.8800     4.6716 C.3     
  25 C25           -4.2378     6.8482     5.7784 C.3     
  26 N26           -1.6133     8.4670    -1.9529 N.3     
  27 C27           -1.2262     9.7903    -1.4429 C.3     
  28 C28           -0.9669    10.7303    -2.6232 C.3     
  29 O29            0.0366    10.1609    -3.4682 O.3     
  30 C30           -0.3079     8.8719    -3.9832 C.3     
  31 C31           -0.5605     7.9131    -2.8167 C.3     
  32 C32            0.8419     8.3407    -4.8415 C.3     
  33 C33           -0.4862    12.0857    -2.1009 C.3     
  34 H34           -1.8940    -0.6612    -0.1905 H       
  35 H35            0.1169    -2.1120    -0.3654 H       
  36 H36            2.3526    -1.0419    -0.4765 H       
  37 H37           -0.8969     3.7616    -0.1201 H       
  38 H38            3.8320     3.3167    -0.4370 H       
  39 H39            2.2367     3.3724    -1.2245 H       
  40 H40            2.3513     3.3172     0.5509 H       
  41 H41           -3.6105     4.0673    -0.8407 H       
  42 H42           -3.5045     4.0132     0.9353 H       
  43 H43           -3.7269     7.5417     3.2233 H       
  44 H44           -1.4168     4.0467     2.2493 H       
  45 H45           -0.6250     3.0432     5.0817 H       
  46 H46           -2.2604     2.4359     5.4350 H       
  47 H47           -1.5568     2.2078     3.8160 H       
  48 H48           -5.2870     6.5581     5.7221 H       
  49 H49           -3.8537     6.6303     6.7750 H       
  50 H50           -4.1448     7.9157     5.5785 H       
  51 H51           -2.0305    10.1926    -0.8270 H       
  52 H52           -0.3197     9.6988    -0.8446 H       
  53 H53           -1.8877    10.8642    -3.1909 H       
  54 H54           -1.2096     8.9517    -4.5905 H       
  55 H55            0.3567     7.7916    -2.2403 H       
  56 H56           -0.8789     6.9451    -3.2036 H       
  57 H57            1.7423     8.2595    -4.2326 H       
  58 H58            0.5787     7.3583    -5.2336 H       
  59 H59            1.0237     9.0257    -5.6696 H       
  60 H60            0.4356    11.9508    -1.5350 H       
  61 H61           -0.3018    12.7544    -2.9416 H       
  62 H62           -1.2498    12.5174    -1.4539 H       
@<TRIPOS>BOND
   1    1    2 ar
   2    1    6 ar
   3    1    7 1
   4    2    3 ar
   5    2   34 1
   6    3    4 ar
   7    3   35 1
   8    4    5 ar
   9    4   36 1
  10    5    6 ar
  11    5   10 1
  12    7    8 2
  13    7    9 am
  14    9   12 1
  15    9   37 1
  16   10   11 1
  17   11   38 1
  18   11   39 1
  19   11   40 1
  20   12   16 1
  21   12   41 1
  22   12   42 1
  23   13   14 1
  24   13   17 1
  25   14   15 2
  26   14   26 1
  27   15   16 1
  28   16   17 2
  29   17   20 1
  30   18   19 ar
  31   18   23 ar
  32   18   25 1
  33   19   20 ar
  34   19   43 1
  35   20   21 ar
  36   21   22 ar
  37   21   44 1
  38   22   23 ar
  39   22   24 1
  40   24   45 1
  41   24   46 1
  42   24   47 1
  43   25   48 1
  44   25   49 1
  45   25   50 1
  46   26   27 1
  47   26   31 1
  48   27   28 1
  49   27   51 1
  50   27   52 1
  51   28   29 1
  52   28   33 1
  53   28   53 1
  54   29   30 1
  55   30   31 1
  56   30   32 1
  57   30   54 1
  58   31   55 1
  59   31   56 1
  60   32   57 1
  61   32   58 1
  62   32   59 1
  63   33   60 1
  64   33   61 1
  65   33   62 1

#	End of record

