#	Name: ASD01884820
#	Creating user name:	WinNT
#	Creation time:	15. 06. 2019 19:48

#	Modifying user name:	WinNT
#	Modification time:	15. 06. 2019 19:48

#	Program:	/corina/corina34_cracker 3.40 0067  02.08.2006

@<TRIPOS>MOLECULE
ASD01884820
  50   54    0    0    0
SMALL
NO_CHARGES


@<TRIPOS>ATOM
   1 C1            -0.8398     1.5078    -1.1166 C.2     
   2 C2            -0.9973     0.0607    -1.2629 C.2     
   3 C3            -1.6580    -0.6373    -0.2434 C.2     
   4 C4            -2.1403     0.0737     0.8718 C.2     
   5 C5            -1.9762     1.4069     0.9701 C.2     
   6 N6            -1.3348     2.1243     0.0063 N.pl3   
   7 C7            -1.0390     3.4568    -0.1426 C.2     
   8 N8            -0.4088     3.5893    -1.2908 N.2     
   9 N9            -0.2856     2.4440    -1.8642 N.2     
  10 N10           -1.8342    -2.0050    -0.3316 N.pl3   
  11 C11           -1.3673     4.5395     0.8076 C.ar    
  12 C12           -0.4912    -0.6226    -2.4151 C.1     
  13 C13           -3.1829    -2.5825    -0.4106 C.3     
  14 C14           -3.3334    -3.6365     0.6909 C.3     
  15 C15           -2.2029    -4.6608     0.5691 C.3     
  16 C16           -0.8549    -3.9597     0.7523 C.3     
  17 C17           -0.6762    -2.9091    -0.3542 C.3     
  18 C18           -2.3671    -5.7183     1.6301 C.ar    
  19 C19           -2.5301    -7.0422     1.2672 C.ar    
  20 C20           -2.6807    -8.0121     2.2405 C.ar    
  21 C21           -2.6680    -7.6583     3.5767 C.ar    
  22 C22           -2.5041    -6.3346     3.9397 C.ar    
  23 C23           -2.3491    -5.3652     2.9665 C.ar    
  24 N24           -0.0897    -1.1647    -3.3292 N.1     
  25 C25           -1.6557     4.2394     2.1404 C.ar    
  26 C26           -1.9615     5.2551     3.0222 C.ar    
  27 C27           -1.9828     6.5689     2.5886 C.ar    
  28 C28           -1.6979     6.8734     1.2692 C.ar    
  29 C29           -1.3849     5.8680     0.3781 C.ar    
  30 H30           -2.6504    -0.4584     1.6611 H       
  31 H31           -2.3593     1.9205     1.8396 H       
  32 H32           -3.9255    -1.7973    -0.2689 H       
  33 H33           -3.3238    -3.0499    -1.3852 H       
  34 H34           -3.2826    -3.1529     1.6665 H       
  35 H35           -4.2940    -4.1403     0.5836 H       
  36 H36           -2.2392    -5.1263    -0.4159 H       
  37 H37           -0.8275    -3.4731     1.7272 H       
  38 H38           -0.0515    -4.6936     0.6886 H       
  39 H39           -0.6168    -3.4025    -1.3243 H       
  40 H40            0.2356    -2.3394    -0.1753 H       
  41 H41           -2.5400    -7.3186     0.2232 H       
  42 H42           -2.8088    -9.0464     1.9569 H       
  43 H43           -2.7864    -8.4161     4.3371 H       
  44 H44           -2.4944    -6.0581     4.9837 H       
  45 H45           -2.2174    -4.3314     3.2501 H       
  46 H46           -1.6398     3.2143     2.4800 H       
  47 H47           -2.1851     5.0243     4.0533 H       
  48 H48           -2.2231     7.3603     3.2831 H       
  49 H49           -1.7163     7.9010     0.9374 H       
  50 H50           -1.1581     6.1074    -0.6503 H       
@<TRIPOS>BOND
   1    1    2 1
   2    1    9 2
   3    1    6 1
   4    2    3 2
   5    2   12 1
   6    3    4 1
   7    3   10 1
   8    4    5 2
   9    4   30 1
  10    5    6 1
  11    5   31 1
  12    6    7 1
  13    7    8 2
  14    7   11 1
  15    8    9 1
  16   10   13 1
  17   10   17 1
  18   11   25 ar
  19   11   29 ar
  20   12   24 3
  21   13   14 1
  22   13   32 1
  23   13   33 1
  24   14   15 1
  25   14   34 1
  26   14   35 1
  27   15   16 1
  28   15   18 1
  29   15   36 1
  30   16   17 1
  31   16   37 1
  32   16   38 1
  33   17   39 1
  34   17   40 1
  35   18   19 ar
  36   18   23 ar
  37   19   20 ar
  38   19   41 1
  39   20   21 ar
  40   20   42 1
  41   21   22 ar
  42   21   43 1
  43   22   23 ar
  44   22   44 1
  45   23   45 1
  46   25   26 ar
  47   25   46 1
  48   26   27 ar
  49   26   47 1
  50   27   28 ar
  51   27   48 1
  52   28   29 ar
  53   28   49 1
  54   29   50 1

#	End of record

