#	Name: ASD09740255
#	Creating user name:	WinNT
#	Creation time:	15. 06. 2019 21:23

#	Modifying user name:	WinNT
#	Modification time:	15. 06. 2019 21:23

#	Program:	/corina/corina34_cracker 3.40 0067  02.08.2006

@<TRIPOS>MOLECULE
ASD09740255
  47   50    0    0    0
SMALL
NO_CHARGES


@<TRIPOS>ATOM
   1 N1            -0.0144     1.2085     0.0087 N.2     
   2 O2             0.0021    -0.0041     0.0020 O.3     
   3 C3             1.2060     1.6802    -0.0004 C.2     
   4 N4             2.0461     0.6245    -0.0141 N.2     
   5 C5             1.2702    -0.4440    -0.0125 C.2     
   6 C6             1.7128    -1.8529    -0.0242 C.ar    
   7 C7             1.5947     3.1130     0.0031 C.ar    
   8 C8             3.0750    -2.1582    -0.0389 C.ar    
   9 C9             3.4867    -3.4742    -0.0499 C.ar    
  10 C10            2.5498    -4.4974    -0.0459 C.ar    
  11 C11            1.1881    -4.1996    -0.0313 C.ar    
  12 C12            0.7692    -2.8832    -0.0149 C.ar    
  13 C13            2.9410     3.4705    -0.0083 C.ar    
  14 C14            3.2944     4.8054    -0.0048 C.ar    
  15 C15            2.3228     5.7838     0.0102 C.ar    
  16 C16            0.9682     5.4393     0.0223 C.ar    
  17 C17            0.6140     4.1015     0.0121 C.ar    
  18 N18           -0.1544     6.2693     0.0385 N.pl3   
  19 C19           -1.3771     5.4618     0.0465 C.3     
  20 C20           -0.8947     4.0019     0.0285 C.3     
  21 O21            2.9604    -5.7925    -0.0568 O.3     
  22 C22            4.6374    -7.5325    -0.0825 C.3     
  23 C23            4.3701    -6.0261    -0.0720 C.3     
  24 O24            0.2722    -5.2049    -0.0279 O.3     
  25 C25           -1.9793    -6.0831    -0.0110 C.3     
  26 C26           -1.1058    -4.8269    -0.0127 C.3     
  27 H27            3.8064    -1.3636    -0.0420 H       
  28 H28            4.5408    -3.7089    -0.0619 H       
  29 H29           -0.2855    -2.6510    -0.0036 H       
  30 H30            3.7049     2.7071    -0.0194 H       
  31 H31            4.3376     5.0847    -0.0137 H       
  32 H32            2.6108     6.8247     0.0132 H       
  33 H33           -0.1287     7.2390     0.0437 H       
  34 H34           -1.9560     5.6607     0.9485 H       
  35 H35           -1.9744     5.6708    -0.8410 H       
  36 H36           -1.2527     3.4940    -0.8670 H       
  37 H37           -1.2311     3.4790     0.9237 H       
  38 H38            4.2038    -7.9847     0.8094 H       
  39 H39            4.1861    -7.9754    -0.9704 H       
  40 H40            5.7126    -7.7107    -0.0941 H       
  41 H41            4.8037    -5.5739    -0.9640 H       
  42 H42            4.8213    -5.5832     0.8159 H       
  43 H43           -3.0304    -5.7947     0.0006 H       
  44 H44           -1.7734    -6.6700    -0.9061 H       
  45 H45           -1.7563    -6.6794     0.8737 H       
  46 H46           -1.3118    -4.2400     0.8824 H       
  47 H47           -1.3288    -4.2305    -0.8975 H       
@<TRIPOS>BOND
   1    1    2 1
   2    1    3 2
   3    2    5 1
   4    3    4 1
   5    3    7 1
   6    4    5 2
   7    5    6 1
   8    6    8 ar
   9    6   12 ar
  10    7   13 ar
  11    7   17 ar
  12    8    9 ar
  13    8   27 1
  14    9   10 ar
  15    9   28 1
  16   10   11 ar
  17   10   21 1
  18   11   12 ar
  19   11   24 1
  20   12   29 1
  21   13   14 ar
  22   13   30 1
  23   14   15 ar
  24   14   31 1
  25   15   16 ar
  26   15   32 1
  27   16   17 ar
  28   16   18 1
  29   17   20 1
  30   18   19 1
  31   18   33 1
  32   19   20 1
  33   19   34 1
  34   19   35 1
  35   20   36 1
  36   20   37 1
  37   21   23 1
  38   22   23 1
  39   22   38 1
  40   22   39 1
  41   22   40 1
  42   23   41 1
  43   23   42 1
  44   24   26 1
  45   25   26 1
  46   25   43 1
  47   25   44 1
  48   25   45 1
  49   26   46 1
  50   26   47 1

#	End of record

