#	Name: ASD02500236
#	Creating user name:	WinNT
#	Creation time:	15. 06. 2019 20:22

#	Modifying user name:	WinNT
#	Modification time:	15. 06. 2019 20:22

#	Program:	/corina/corina34_cracker 3.40 0067  02.08.2006

@<TRIPOS>MOLECULE
ASD02500236
  63   67    0    0    0
SMALL
NO_CHARGES


@<TRIPOS>ATOM
   1 N1            -3.4484     4.9717     0.6531 N.ar    
   2 C2            -4.6783     5.3816     0.8469 C.ar    
   3 C3            -5.4527     4.9040     1.9022 C.ar    
   4 C4            -4.9329     3.9836     2.7671 C.ar    
   5 C5            -3.6119     3.5454     2.5556 C.ar    
   6 C6            -3.0101     2.6018     3.4031 C.ar    
   7 C7            -1.7298     2.2035     3.1652 C.ar    
   8 C8            -1.0082     2.7205     2.0915 C.ar    
   9 C9            -1.5606     3.6366     1.2500 C.ar    
  10 C10           -2.8798     4.0726     1.4627 C.ar    
  11 S11           -0.6252     4.2746    -0.1000 S.o2    
  12 O12           -0.6981     5.6905    -0.0051 O.2     
  13 O13            0.6022     3.5585    -0.1116 O.2     
  14 N14           -1.4231     3.8573    -1.4898 N.am    
  15 C15           -1.6631     2.5183    -1.7786 C.ar    
  16 C16           -2.8874     2.1335    -2.3117 C.ar    
  17 C17           -3.1261     0.8015    -2.5994 C.ar    
  18 C18           -2.1270    -0.1529    -2.3499 C.ar    
  19 C19           -0.9001     0.2503    -1.8131 C.ar    
  20 C20           -0.6730     1.5679    -1.5377 C.ar    
  21 O21           -4.3193     0.4195    -3.1195 O.3     
  22 C22           -5.2871     1.4463    -3.3458 C.3     
  23 C23           -2.3702    -1.5733    -2.6518 C.2     
  24 O24           -3.3377    -2.1385    -2.1787 O.2     
  25 N25           -1.5208    -2.2471    -3.4523 N.am    
  26 C26           -1.7868    -3.6459    -3.8165 C.3     
  27 C27           -1.7927    -3.7615    -5.3458 C.3     
  28 N28           -0.5841    -3.1105    -5.8706 N.am    
  29 C29           -0.3181    -1.7118    -5.5065 C.3     
  30 C30           -0.3151    -1.5944    -3.9817 C.3     
  31 C31            1.3556    -3.0639    -7.3670 C.ar    
  32 C32            2.3283    -3.7845    -8.0579 C.ar    
  33 C33            3.3391    -3.0979    -8.7091 C.ar    
  34 C34            3.3433    -1.7103    -8.6474 C.ar    
  35 C35            2.3416    -1.0584    -7.9400 C.ar    
  36 N36            1.3946    -1.7375    -7.3316 N.ar    
  37 C37            0.2653    -3.7844    -6.6712 C.2     
  38 O38            0.1362    -4.9834    -6.8219 O.2     
  39 F39            4.3119    -1.0022    -9.2684 F       
  40 H40           -5.1026     6.1092     0.1709 H       
  41 H41           -6.4630     5.2614     2.0363 H       
  42 H42           -5.5189     3.6029     3.5906 H       
  43 H43           -3.5591     2.1944     4.2392 H       
  44 H44           -1.2676     1.4776     3.8177 H       
  45 H45            0.0060     2.3892     1.9242 H       
  46 H46           -1.7232     4.5469    -2.1025 H       
  47 H47           -3.6515     2.8731    -2.5007 H       
  48 H48           -0.1297    -0.4815    -1.6197 H       
  49 H49            0.2776     1.8748    -1.1271 H       
  50 H50           -5.5229     1.9377    -2.4018 H       
  51 H51           -4.8834     2.1782    -4.0454 H       
  52 H52           -6.1930     1.0063    -3.7626 H       
  53 H53           -1.0067    -4.2859    -3.4042 H       
  54 H54           -2.7573    -3.9481    -3.4230 H       
  55 H55           -1.7960    -4.8130    -5.6331 H       
  56 H56           -2.6777    -3.2674    -5.7466 H       
  57 H57            0.6524    -1.4096    -5.9000 H       
  58 H58           -1.0982    -1.0718    -5.9188 H       
  59 H59           -0.3140    -0.5421    -3.6974 H       
  60 H60            0.5721    -2.0850    -3.5815 H       
  61 H61            2.2942    -4.8636    -8.0847 H       
  62 H62            4.1068    -3.6291    -9.2522 H       
  63 H63            2.3406     0.0204    -7.8891 H       
@<TRIPOS>BOND
   1    1    2 ar
   2    1   10 ar
   3    2    3 ar
   4    2   40 1
   5    3    4 ar
   6    3   41 1
   7    4    5 ar
   8    4   42 1
   9    5    6 ar
  10    5   10 ar
  11    6    7 ar
  12    6   43 1
  13    7    8 ar
  14    7   44 1
  15    8    9 ar
  16    8   45 1
  17    9   10 ar
  18    9   11 1
  19   11   12 2
  20   11   13 2
  21   11   14 am
  22   14   15 1
  23   14   46 1
  24   15   16 ar
  25   15   20 ar
  26   16   17 ar
  27   16   47 1
  28   17   18 ar
  29   17   21 1
  30   18   19 ar
  31   18   23 1
  32   19   20 ar
  33   19   48 1
  34   20   49 1
  35   21   22 1
  36   22   50 1
  37   22   51 1
  38   22   52 1
  39   23   24 2
  40   23   25 am
  41   25   26 1
  42   25   30 1
  43   26   27 1
  44   26   53 1
  45   26   54 1
  46   27   28 1
  47   27   55 1
  48   27   56 1
  49   28   29 1
  50   28   37 am
  51   29   30 1
  52   29   57 1
  53   29   58 1
  54   30   59 1
  55   30   60 1
  56   31   32 ar
  57   31   36 ar
  58   31   37 1
  59   32   33 ar
  60   32   61 1
  61   33   34 ar
  62   33   62 1
  63   34   35 ar
  64   34   39 1
  65   35   36 ar
  66   35   63 1
  67   37   38 2

#	End of record

