#	Name: ASD01900069
#	Creating user name:	WinNT
#	Creation time:	15. 06. 2019 19:51

#	Modifying user name:	WinNT
#	Modification time:	15. 06. 2019 19:51

#	Program:	/corina/corina34_cracker 3.40 0067  02.08.2006

@<TRIPOS>MOLECULE
ASD01900069
  32   34    0    0    0
SMALL
NO_CHARGES


@<TRIPOS>ATOM
   1 C1            -0.0162     1.3436     0.0094 C.2     
   2 N2             0.0021    -0.0041     0.0020 N.am    
   3 O3             1.0289     1.9661     0.0028 O.2     
   4 C4             1.2298    -0.6908    -0.0134 C.2     
   5 C5             1.3919    -2.0389    -0.0222 C.2     
   6 N6             2.7265    -2.2909    -0.0371 N.am    
   7 N7             3.3968    -1.0610    -0.0374 N.2     
   8 C8             2.5041    -0.1047    -0.0286 C.2     
   9 S9             3.4356    -3.7873    -0.0518 S.o2    
  10 O10            4.7423    -3.6174     0.4802 O.2     
  11 O11            2.4837    -4.6878     0.4980 O.2     
  12 C12            3.6417    -4.2503    -1.7393 C.ar    
  13 C13            4.8044    -3.9189    -2.4090 C.ar    
  14 C14            4.9672    -4.2827    -3.7345 C.ar    
  15 C15            3.9630    -4.9795    -4.3890 C.ar    
  16 C16            2.7998    -5.3098    -3.7155 C.ar    
  17 C17            2.6425    -4.9497    -2.3904 C.ar    
  18 F18            6.1033    -3.9587    -4.3900 F       
  19 C19           -1.3011     2.0623     0.0194 C.2     
  20 F20            4.1195    -5.3352    -5.6829 F       
  21 N21           -1.4448     3.3600     0.0272 N.2     
  22 C22           -2.6765     3.7980     0.0354 C.2     
  23 C23           -3.6315     2.8550     0.0348 C.2     
  24 S24           -2.8940     1.3116     0.0153 S.3     
  25 H25           -0.8313    -0.5005     0.0073 H       
  26 H26            0.6032    -2.7766    -0.0177 H       
  27 H27            2.7127     0.9549    -0.0270 H       
  28 H28            5.5857    -3.3759    -1.8982 H       
  29 H29            2.0168    -5.8526    -4.2243 H       
  30 H30            1.7346    -5.2078    -1.8655 H       
  31 H31           -2.9107     4.8523     0.0426 H       
  32 H32           -4.6954     3.0409     0.0412 H       
@<TRIPOS>BOND
   1    1    2 am
   2    1    3 2
   3    1   19 1
   4    2    4 1
   5    2   25 1
   6    4    5 2
   7    4    8 1
   8    5    6 1
   9    5   26 1
  10    6    7 1
  11    6    9 am
  12    7    8 2
  13    8   27 1
  14    9   10 2
  15    9   11 2
  16    9   12 1
  17   12   13 ar
  18   12   17 ar
  19   13   14 ar
  20   13   28 1
  21   14   15 ar
  22   14   18 1
  23   15   16 ar
  24   15   20 1
  25   16   17 ar
  26   16   29 1
  27   17   30 1
  28   19   21 2
  29   19   24 1
  30   21   22 1
  31   22   23 2
  32   22   31 1
  33   23   24 1
  34   23   32 1

#	End of record

