#	Name: ASD01881503
#	Creating user name:	WinNT
#	Creation time:	15. 06. 2019 19:42

#	Modifying user name:	WinNT
#	Modification time:	15. 06. 2019 19:42

#	Program:	/corina/corina34_cracker 3.40 0067  02.08.2006

@<TRIPOS>MOLECULE
ASD01881503
  53   57    0    0    0
SMALL
NO_CHARGES


@<TRIPOS>ATOM
   1 C1            -0.0773    -0.3817    -0.2778 C.ar    
   2 C2             0.4861    -1.5883     0.1370 C.ar    
   3 C3             1.8670    -1.6860     0.3192 C.ar    
   4 C4             2.6659    -0.5934     0.0894 C.ar    
   5 C5             2.1064     0.6188    -0.3266 C.ar    
   6 C6             0.7243     0.7140    -0.5081 C.ar    
   7 C7             4.1537    -0.3646     0.1882 C.3     
   8 N8             4.3802     1.0336    -0.1945 N.am    
   9 C9             3.1972     1.5983    -0.4909 C.2     
  10 C10            5.6819     1.7040    -0.2447 C.3     
  11 C11            6.2797     1.5382    -1.6181 C.ar    
  12 C12            6.0186     2.4739    -2.6020 C.ar    
  13 C13            6.5650     2.3240    -3.8618 C.ar    
  14 C14            7.3767     1.2334    -4.1394 C.ar    
  15 C15            7.6375     0.2960    -3.1501 C.ar    
  16 C16            7.0928     0.4535    -1.8904 C.ar    
  17 O17            7.9150     1.0834    -5.3780 O.3     
  18 O18            3.0473     2.7519    -0.8438 O.2     
  19 C19            0.1111     2.0155    -0.9566 C.3     
  20 C20           -1.7427    -2.6929     0.1017 C.ar    
  21 C21           -0.3805    -2.7659     0.3846 C.ar    
  22 C22            9.1176     1.6666    -5.6261 C.ar    
  23 C23            9.6535     1.6387    -6.9076 C.ar    
  24 C24           10.8776     2.2332    -7.1563 C.ar    
  25 C25           11.5663     2.8542    -6.1308 C.ar    
  26 C26           11.0342     2.8828    -4.8550 C.ar    
  27 C27            9.8093     2.2956    -4.6017 C.ar    
  28 F28            8.9805     1.0314    -7.9093 F       
  29 C29           -2.5391    -3.8007     0.3376 C.ar    
  30 C30           -1.9460    -4.9457     0.8492 C.ar    
  31 C31           -0.5868    -4.9483     1.1070 C.ar    
  32 N32            0.1479    -3.8807     0.8734 N.ar    
  33 H33           -1.1449    -0.3078    -0.4229 H       
  34 H34            2.3057    -2.6191     0.6406 H       
  35 H35            4.4913    -0.5324     1.2109 H       
  36 H36            4.6812    -1.0301    -0.4950 H       
  37 H37            5.5527     2.7649    -0.0304 H       
  38 H38            6.3471     1.2619     0.4970 H       
  39 H39            5.3868     3.3226    -2.3854 H       
  40 H40            6.3602     3.0549    -4.6302 H       
  41 H41            8.2686    -0.5539    -3.3636 H       
  42 H42            7.2954    -0.2758    -1.1200 H       
  43 H43            0.0724     2.0427    -2.0456 H       
  44 H44           -0.8988     2.0988    -0.5550 H       
  45 H45            0.7161     2.8464    -0.5937 H       
  46 H46           -2.1722    -1.7835    -0.2920 H       
  47 H47           11.2956     2.2119    -8.1519 H       
  48 H48           12.5220     3.3175    -6.3267 H       
  49 H49           11.5748     3.3684    -4.0560 H       
  50 H50            9.3949     2.3188    -3.6047 H       
  51 H51           -3.5983    -3.7739     0.1285 H       
  52 H52           -2.5397    -5.8264     1.0447 H       
  53 H53           -0.1220    -5.8380     1.5057 H       
@<TRIPOS>BOND
   1    1    2 ar
   2    1    6 ar
   3    1   33 1
   4    2    3 ar
   5    2   21 1
   6    3    4 ar
   7    3   34 1
   8    4    5 ar
   9    4    7 1
  10    5    6 ar
  11    5    9 1
  12    6   19 1
  13    7    8 1
  14    7   35 1
  15    7   36 1
  16    8    9 am
  17    8   10 1
  18    9   18 2
  19   10   11 1
  20   10   37 1
  21   10   38 1
  22   11   12 ar
  23   11   16 ar
  24   12   13 ar
  25   12   39 1
  26   13   14 ar
  27   13   40 1
  28   14   15 ar
  29   14   17 1
  30   15   16 ar
  31   15   41 1
  32   16   42 1
  33   17   22 1
  34   19   43 1
  35   19   44 1
  36   19   45 1
  37   20   21 ar
  38   20   29 ar
  39   20   46 1
  40   21   32 ar
  41   22   23 ar
  42   22   27 ar
  43   23   24 ar
  44   23   28 1
  45   24   25 ar
  46   24   47 1
  47   25   26 ar
  48   25   48 1
  49   26   27 ar
  50   26   49 1
  51   27   50 1
  52   29   30 ar
  53   29   51 1
  54   30   31 ar
  55   30   52 1
  56   31   32 ar
  57   31   53 1

#	End of record

