#	Name: ASD01810326
#	Creating user name:	WinNT
#	Creation time:	15. 06. 2019 19:24

#	Modifying user name:	WinNT
#	Modification time:	15. 06. 2019 19:24

#	Program:	/corina/corina34_cracker 3.40 0067  02.08.2006

@<TRIPOS>MOLECULE
ASD01810326
  53   56    0    0    0
SMALL
NO_CHARGES


@<TRIPOS>ATOM
   1 C1            -0.0163     1.3795     0.0297 C.ar    
   2 C2             0.0024    -0.0042     0.0221 C.ar    
   3 C3             1.1962    -0.6956    -0.0129 C.ar    
   4 C4             2.4033    -0.0053    -0.0406 C.ar    
   5 C5             2.3909     1.4007    -0.0331 C.ar    
   6 C6             1.1727     2.0935     0.0021 C.ar    
   7 N7             3.6000    -0.6892    -0.0747 N.pl3   
   8 C8             4.7882    -0.0709    -0.1014 C.2     
   9 C9             4.9012     1.3041    -0.0968 C.2     
  10 C10            3.6746     2.1188    -0.0627 C.2     
  11 O11            3.7212     3.3368    -0.0576 O.2     
  12 C12            3.5711    -2.1539    -0.0815 C.3     
  13 C13            3.5249    -2.6488    -1.5041 C.ar    
  14 C14            4.7025    -2.8987    -2.1854 C.ar    
  15 C15            4.6662    -3.3520    -3.4884 C.ar    
  16 C16            3.4400    -3.5585    -4.1175 C.ar    
  17 C17            2.2567    -3.3056    -3.4263 C.ar    
  18 C18            2.3049    -2.8570    -2.1220 C.ar    
  19 C19            3.3945    -4.0453    -5.5183 C.ar    
  20 C20            6.2231     1.9451    -0.1263 C.2     
  21 O21            6.3206     3.2897    -0.1215 O.3     
  22 O22            7.2289     1.2629    -0.1552 O.2     
  23 C23            4.5719    -4.2996    -6.2152 C.ar    
  24 N24            4.5368    -4.7318    -7.4600 N.ar    
  25 C25            3.3925    -4.9404    -8.0933 C.ar    
  26 C26            2.1739    -4.7081    -7.4610 C.ar    
  27 C27            2.1667    -4.2605    -6.1550 C.ar    
  28 N28            3.4082    -5.3964    -9.4054 N.pl3   
  29 C29            2.1480    -5.6303   -10.1147 C.3     
  30 N30            1.1564     3.4832     0.0097 N.pl3   
  31 C31           -0.1170     4.2013    -0.0849 C.3     
  32 H32           -0.9595     1.9051     0.0528 H       
  33 H33           -0.9292    -0.5500     0.0441 H       
  34 H34            1.1931    -1.7756    -0.0184 H       
  35 H35            5.6873    -0.6686    -0.1271 H       
  36 H36            4.4665    -2.5372     0.4077 H       
  37 H37            2.6875    -2.5023     0.4533 H       
  38 H38            5.6523    -2.7383    -1.6968 H       
  39 H39            5.5862    -3.5461    -4.0196 H       
  40 H40            1.3037    -3.4635    -3.9092 H       
  41 H41            1.3885    -2.6610    -1.5852 H       
  42 H42            7.2114     3.6654    -0.1417 H       
  43 H43            5.5242    -4.1410    -5.7312 H       
  44 H44            1.2451    -4.8804    -7.9846 H       
  45 H45            1.2362    -4.0721    -5.6401 H       
  46 H46            4.2537    -5.5600    -9.8519 H       
  47 H47            1.5651    -6.3816    -9.5818 H       
  48 H48            1.5818    -4.7003   -10.1660 H       
  49 H49            2.3593    -5.9832   -11.1242 H       
  50 H50            1.9881     3.9776     0.0776 H       
  51 H51           -0.6146     3.9373    -1.0180 H       
  52 H52           -0.7528     3.9259     0.7565 H       
  53 H53            0.0690     5.2751    -0.0635 H       
@<TRIPOS>BOND
   1    1    2 ar
   2    1    6 ar
   3    1   32 1
   4    2    3 ar
   5    2   33 1
   6    3    4 ar
   7    3   34 1
   8    4    5 ar
   9    4    7 1
  10    5    6 ar
  11    5   10 1
  12    6   30 1
  13    7    8 1
  14    7   12 1
  15    8    9 2
  16    8   35 1
  17    9   10 1
  18    9   20 1
  19   10   11 2
  20   12   13 1
  21   12   36 1
  22   12   37 1
  23   13   14 ar
  24   13   18 ar
  25   14   15 ar
  26   14   38 1
  27   15   16 ar
  28   15   39 1
  29   16   17 ar
  30   16   19 1
  31   17   18 ar
  32   17   40 1
  33   18   41 1
  34   19   23 ar
  35   19   27 ar
  36   20   21 1
  37   20   22 2
  38   21   42 1
  39   23   24 ar
  40   23   43 1
  41   24   25 ar
  42   25   26 ar
  43   25   28 1
  44   26   27 ar
  45   26   44 1
  46   27   45 1
  47   28   29 1
  48   28   46 1
  49   29   47 1
  50   29   48 1
  51   29   49 1
  52   30   31 1
  53   30   50 1
  54   31   51 1
  55   31   52 1
  56   31   53 1

#	End of record

