#	Name: ASD09720047
#	Creating user name:	WinNT
#	Creation time:	15. 06. 2019 21:22

#	Modifying user name:	WinNT
#	Modification time:	15. 06. 2019 21:22

#	Program:	/corina/corina34_cracker 3.40 0067  02.08.2006

@<TRIPOS>MOLECULE
ASD09720047
  30   31    0    0    0
SMALL
NO_CHARGES


@<TRIPOS>ATOM
   1 C1            -0.0155     1.4719     0.0368 C.ar    
   2 C2             0.0021    -0.0041     0.0020 C.2     
   3 N3             1.1255    -0.6349    -0.1097 N.2     
   4 C4            -1.2891    -0.7754     0.0967 C.3     
   5 O5             2.3238     0.0866    -0.3304 O.3     
   6 S6            -0.9376    -2.5537     0.0261 S.3     
   7 C7            -2.5386    -3.2793     0.1487 C.ar    
   8 C8            -2.6801    -4.6617     0.1299 C.ar    
   9 C9            -3.9364    -5.2268     0.2261 C.ar    
  10 C10           -5.0530    -4.4188     0.3408 C.ar    
  11 C11           -4.9160    -3.0427     0.3594 C.ar    
  12 C12           -3.6624    -2.4707     0.2703 C.ar    
  13 C13            1.0414     2.1716     0.6208 C.ar    
  14 C14            1.0185     3.5532     0.6493 C.ar    
  15 C15           -0.0508     4.2419     0.0998 C.ar    
  16 C16           -1.1006     3.5523    -0.4801 C.ar    
  17 C17           -1.0869     2.1736    -0.5196 C.ar    
  18 F18            2.0401     4.2332     1.2144 F       
  19 H19           -1.9311     4.0951    -0.9067 H       
  20 H20           -1.7847    -0.5401     1.0386 H       
  21 H21           -1.9385    -0.5002    -0.7343 H       
  22 H22            3.1111    -0.4705    -0.4004 H       
  23 H23           -1.8087    -5.2932     0.0397 H       
  24 H24           -4.0471    -6.3010     0.2115 H       
  25 H25           -6.0343    -4.8635     0.4155 H       
  26 H26           -5.7902    -2.4148     0.4487 H       
  27 H27           -3.5562    -1.3960     0.2849 H       
  28 H28            1.8748     1.6349     1.0495 H       
  29 H29           -0.0649     5.3215     0.1245 H       
  30 H30           -1.9075     1.6373    -0.9728 H       
@<TRIPOS>BOND
   1    1    2 1
   2    1   13 ar
   3    1   17 ar
   4    2    3 2
   5    2    4 1
   6    3    5 1
   7    4    6 1
   8    4   20 1
   9    4   21 1
  10    5   22 1
  11    6    7 1
  12    7    8 ar
  13    7   12 ar
  14    8    9 ar
  15    8   23 1
  16    9   10 ar
  17    9   24 1
  18   10   11 ar
  19   10   25 1
  20   11   12 ar
  21   11   26 1
  22   12   27 1
  23   13   14 ar
  24   13   28 1
  25   14   15 ar
  26   14   18 1
  27   15   16 ar
  28   15   29 1
  29   16   17 ar
  30   16   19 1
  31   17   30 1

#	End of record

