#	Name: ASD00311194
#	Creating user name:	WinNT
#	Creation time:	15. 06. 2019 18:34

#	Modifying user name:	WinNT
#	Modification time:	15. 06. 2019 18:34

#	Program:	/corina/corina34_cracker 3.40 0067  02.08.2006

@<TRIPOS>MOLECULE
ASD00311194
  53   57    0    0    0
SMALL
NO_CHARGES


@<TRIPOS>ATOM
   1 C1            -0.0167     1.3774     0.0096 C.2     
   2 C2             0.0021    -0.0041     0.0020 C.2     
   3 C3             1.2584    -0.6767    -0.0139 C.2     
   4 C4             2.4315     0.0670    -0.0214 C.2     
   5 C5             2.3576     1.4748    -0.0131 C.2     
   6 N6             1.1650     2.0899     0.0022 N.am    
   7 C7            -1.3437    -0.5757     0.0126 C.2     
   8 C8            -2.3239     0.3275     0.0274 C.2     
   9 S9            -1.6789     1.9569     0.0358 S.3     
  10 O10            3.3825     2.1369    -0.0196 O.2     
  11 C11            3.7475    -0.6125    -0.0375 C.ar    
  12 C12            4.5930    -0.4753    -1.1382 C.ar    
  13 C13            5.8179    -1.1104    -1.1470 C.ar    
  14 C14            6.2080    -1.8821    -0.0671 C.ar    
  15 C15            5.3737    -2.0220     1.0276 C.ar    
  16 C16            4.1486    -1.3876     1.0505 C.ar    
  17 C17           -1.5962    -2.0340     0.0066 C.ar    
  18 C18           -1.7295    -2.7234    -1.2110 C.ar    
  19 C19           -1.9664    -4.0950    -1.2024 C.ar    
  20 C20           -2.0691    -4.7705    -0.0026 C.ar    
  21 C21           -1.9383    -4.0917     1.1970 C.ar    
  22 C22           -1.6975    -2.7326     1.2076 C.ar    
  23 C23           -1.6190    -1.9942    -2.4961 C.ar    
  24 C24           -0.4079    -1.3981    -2.8641 C.ar    
  25 C25           -0.3139    -0.7185    -4.0673 C.ar    
  26 C26           -1.4135    -0.6298    -4.9006 C.ar    
  27 C27           -2.6126    -1.2177    -4.5395 C.ar    
  28 C28           -2.7191    -1.9039    -3.3465 C.ar    
  29 C29           -3.8052    -1.1140    -5.4549 C.3     
  30 C30           -1.3055     0.1113    -6.2083 C.3     
  31 O31            0.6717    -1.4852    -2.0441 O.3     
  32 O32            1.3080    -2.0293    -0.0212 O.3     
  33 Cl33          -4.0162    -0.0594     0.0425 Cl      
  34 H34            1.1329     3.0594     0.0077 H       
  35 H35            4.2894     0.1265    -1.9820 H       
  36 H36            6.4733    -1.0052    -1.9989 H       
  37 H37            7.1675    -2.3776    -0.0788 H       
  38 H38            5.6837    -2.6258     1.8678 H       
  39 H39            3.4999    -1.4942     1.9074 H       
  40 H40           -2.0701    -4.6309    -2.1344 H       
  41 H41           -2.2529    -5.8347     0.0002 H       
  42 H42           -2.0208    -4.6296     2.1298 H       
  43 H43           -1.5921    -2.2101     2.1469 H       
  44 H44            0.6194    -0.2571    -4.3547 H       
  45 H45           -3.6553    -2.3660    -3.0702 H       
  46 H46           -3.8081    -1.9578    -6.1449 H       
  47 H47           -4.7201    -1.1260    -4.8625 H       
  48 H48           -3.7501    -0.1833    -6.0194 H       
  49 H49           -0.9943    -0.5788    -6.9925 H       
  50 H50           -2.2747     0.5392    -6.4645 H       
  51 H51           -0.5694     0.9097    -6.1138 H       
  52 H52            1.2298    -2.2575    -2.2092 H       
  53 H53            2.2052    -2.3899    -0.0320 H       
@<TRIPOS>BOND
   1    1    2 2
   2    1    6 1
   3    1    9 1
   4    2    3 1
   5    2    7 1
   6    3    4 2
   7    3   32 1
   8    4    5 1
   9    4   11 1
  10    5    6 am
  11    5   10 2
  12    6   34 1
  13    7    8 2
  14    7   17 1
  15    8    9 1
  16    8   33 1
  17   11   12 ar
  18   11   16 ar
  19   12   13 ar
  20   12   35 1
  21   13   14 ar
  22   13   36 1
  23   14   15 ar
  24   14   37 1
  25   15   16 ar
  26   15   38 1
  27   16   39 1
  28   17   18 ar
  29   17   22 ar
  30   18   19 ar
  31   18   23 1
  32   19   20 ar
  33   19   40 1
  34   20   21 ar
  35   20   41 1
  36   21   22 ar
  37   21   42 1
  38   22   43 1
  39   23   24 ar
  40   23   28 ar
  41   24   25 ar
  42   24   31 1
  43   25   26 ar
  44   25   44 1
  45   26   27 ar
  46   26   30 1
  47   27   28 ar
  48   27   29 1
  49   28   45 1
  50   29   46 1
  51   29   47 1
  52   29   48 1
  53   30   49 1
  54   30   50 1
  55   30   51 1
  56   31   52 1
  57   32   53 1

#	End of record

