#	Name: ASD04590062
#	Creating user name:	WinNT
#	Creation time:	15. 06. 2019 20:50

#	Modifying user name:	WinNT
#	Modification time:	15. 06. 2019 20:50

#	Program:	/corina/corina34_cracker 3.40 0067  02.08.2006

@<TRIPOS>MOLECULE
ASD04590062
  37   39    0    0    0
SMALL
NO_CHARGES


@<TRIPOS>ATOM
   1 N1            -0.0768     1.2682    -0.0495 N.pl3   
   2 N2            -0.0362    -0.0145     0.0019 N.2     
   3 C3             1.1929    -0.4418    -0.2150 C.2     
   4 C4             2.0014     0.7056    -0.4237 C.2     
   5 C5             1.1590     1.7668    -0.3105 C.2     
   6 C6             1.6418    -1.8464    -0.2362 C.2     
   7 O7             2.8102    -2.1081    -0.4488 O.2     
   8 N8             0.7572    -2.8399    -0.0200 N.am    
   9 C9             1.1618    -4.1748    -0.1363 C.ar    
  10 C10            2.4398    -4.5507     0.2561 C.ar    
  11 C11            2.8368    -5.8684     0.1409 C.ar    
  12 C12            1.9618    -6.8145    -0.3658 C.ar    
  13 C13            0.6870    -6.4418    -0.7576 C.ar    
  14 C14            0.2839    -5.1262    -0.6388 C.ar    
  15 F15            2.3524    -8.1029    -0.4784 F       
  16 N16            3.3784     0.7381    -0.6900 N.am    
  17 C17            4.0033     1.9193    -0.8650 C.2     
  18 C18            5.4513     1.9535    -1.1450 C.ar    
  19 C19            6.3700     2.0248    -0.0922 C.ar    
  20 C20            7.7249     2.0559    -0.3636 C.ar    
  21 C21            8.1733     2.0167    -1.6713 C.ar    
  22 C22            7.2721     1.9462    -2.7181 C.ar    
  23 C23            5.9139     1.9089    -2.4646 C.ar    
  24 O24            3.3734     2.9570    -0.7920 O.2     
  25 F25            5.0354     1.8344    -3.4883 F       
  26 F26            5.9340     2.0636     1.1860 F       
  27 H27           -0.8759     1.8035     0.0760 H       
  28 H28            1.4229     2.8093    -0.4094 H       
  29 H29           -0.1599    -2.6299     0.2161 H       
  30 H30            3.1228    -3.8130     0.6506 H       
  31 H31            3.8306    -6.1612     0.4460 H       
  32 H32            0.0061    -7.1812    -1.1529 H       
  33 H33           -0.7119    -4.8367    -0.9404 H       
  34 H34            3.8808    -0.0897    -0.7482 H       
  35 H35            8.4354     2.1113     0.4479 H       
  36 H36            9.2334     2.0417    -1.8763 H       
  37 H37            7.6309     1.9164    -3.7364 H       
@<TRIPOS>BOND
   1    1    2 1
   2    1    5 1
   3    1   27 1
   4    2    3 2
   5    3    4 1
   6    3    6 1
   7    4    5 2
   8    4   16 1
   9    5   28 1
  10    6    7 2
  11    6    8 am
  12    8    9 1
  13    8   29 1
  14    9   10 ar
  15    9   14 ar
  16   10   11 ar
  17   10   30 1
  18   11   12 ar
  19   11   31 1
  20   12   13 ar
  21   12   15 1
  22   13   14 ar
  23   13   32 1
  24   14   33 1
  25   16   17 am
  26   16   34 1
  27   17   18 1
  28   17   24 2
  29   18   19 ar
  30   18   23 ar
  31   19   20 ar
  32   19   26 1
  33   20   21 ar
  34   20   35 1
  35   21   22 ar
  36   21   36 1
  37   22   23 ar
  38   22   37 1
  39   23   25 1

#	End of record

