#	Name: ASD03430025
#	Creating user name:	WinNT
#	Creation time:	15. 06. 2019 20:40

#	Modifying user name:	WinNT
#	Modification time:	15. 06. 2019 20:40

#	Program:	/corina/corina34_cracker 3.40 0067  02.08.2006

@<TRIPOS>MOLECULE
ASD03430025
  55   60    0    0    0
SMALL
NO_CHARGES


@<TRIPOS>ATOM
   1 C1            -0.0167     1.3822     0.0096 C.ar    
   2 C2             0.0021    -0.0041     0.0020 C.ar    
   3 C3             1.2028    -0.6819    -0.0149 C.ar    
   4 C4             2.4086     0.0130    -0.0150 C.ar    
   5 C5             2.3860     1.4040    -0.0120 C.ar    
   6 C6             1.1815     2.0868     0.0020 C.ar    
   7 O7             3.4714    -0.8417    -0.0042 O.3     
   8 C8             1.5513    -2.1457    -0.0479 C.3     
   9 C9             3.0369    -2.1460    -0.4339 C.3     
  10 C10            0.4290    -3.8609     1.0104 C.ar    
  11 C11            1.3155    -2.8188     1.2717 C.ar    
  12 C12            0.7182    -2.9080    -1.0380 C.2     
  13 N13            0.1001    -3.8864    -0.3470 N.am    
  14 O14            0.6207    -2.6865    -2.2265 O.2     
  15 C15            1.7793    -2.5972     2.5487 C.ar    
  16 C16            1.3665    -3.4132     3.5875 C.ar    
  17 C17            0.4875    -4.4512     3.3395 C.ar    
  18 C18            0.0195    -4.6772     2.0614 C.ar    
  19 C19           -0.8103    -4.8633    -0.9496 C.3     
  20 O20           -1.2112     2.0358     0.0189 O.3     
  21 O21            1.1867     3.4485     0.0118 O.3     
  22 C22           -2.2192    -4.3300    -0.9069 C.ar    
  23 N23           -2.9486    -4.5040     0.1788 N.ar    
  24 C24           -4.1906    -4.0520     0.2605 C.ar    
  25 C25           -4.7687    -3.3733    -0.8072 C.ar    
  26 C26           -4.0282    -3.1757    -1.9589 C.ar    
  27 C27           -2.7280    -3.6608    -2.0021 C.ar    
  28 C28           -1.1864     3.4160     0.3990 C.3     
  29 C29           -0.0355     4.0995    -0.3511 C.3     
  30 N30           -4.9234    -4.2580     1.4236 N.pl3   
  31 C31           -6.3318    -3.8587     1.4825 C.3     
  32 C32           -4.2874    -4.8742     2.5906 C.3     
  33 H33           -0.9268    -0.5549     0.0097 H       
  34 H34            3.3147     1.9552    -0.0201 H       
  35 H35            3.1568    -2.2584    -1.5115 H       
  36 H36            3.5755    -2.9288     0.1003 H       
  37 H37            2.4662    -1.7861     2.7401 H       
  38 H38            1.7303    -3.2398     4.5894 H       
  39 H39            0.1660    -5.0885     4.1500 H       
  40 H40           -0.6672    -5.4899     1.8756 H       
  41 H41           -0.5200    -5.0399    -1.9853 H       
  42 H42           -0.7591    -5.7992    -0.3932 H       
  43 H43           -5.7819    -3.0060    -0.7382 H       
  44 H44           -4.4506    -2.6524    -2.8040 H       
  45 H45           -2.1233    -3.5227    -2.8862 H       
  46 H46           -2.1315     3.8883     0.1310 H       
  47 H47           -1.0253     3.4985     1.4739 H       
  48 H48            0.0114     5.1521    -0.0718 H       
  49 H49           -0.1932     4.0105    -1.4259 H       
  50 H50           -6.9587    -4.6891     1.1576 H       
  51 H51           -6.5900    -3.5874     2.5061 H       
  52 H52           -6.4944    -3.0028     0.8276 H       
  53 H53           -3.2465    -5.1008     2.3598 H       
  54 H54           -4.3308    -4.1853     3.4342 H       
  55 H55           -4.8117    -5.7951     2.8462 H       
@<TRIPOS>BOND
   1    1    2 ar
   2    1    6 ar
   3    1   20 1
   4    2    3 ar
   5    2   33 1
   6    3    4 ar
   7    3    8 1
   8    4    5 ar
   9    4    7 1
  10    5    6 ar
  11    5   34 1
  12    6   21 1
  13    7    9 1
  14    8    9 1
  15    8   11 1
  16    8   12 1
  17    9   35 1
  18    9   36 1
  19   10   11 ar
  20   10   13 1
  21   10   18 ar
  22   11   15 ar
  23   12   13 am
  24   12   14 2
  25   13   19 1
  26   15   16 ar
  27   15   37 1
  28   16   17 ar
  29   16   38 1
  30   17   18 ar
  31   17   39 1
  32   18   40 1
  33   19   22 1
  34   19   41 1
  35   19   42 1
  36   20   28 1
  37   21   29 1
  38   22   23 ar
  39   22   27 ar
  40   23   24 ar
  41   24   25 ar
  42   24   30 1
  43   25   26 ar
  44   25   43 1
  45   26   27 ar
  46   26   44 1
  47   27   45 1
  48   28   29 1
  49   28   46 1
  50   28   47 1
  51   29   48 1
  52   29   49 1
  53   30   31 1
  54   30   32 1
  55   31   50 1
  56   31   51 1
  57   31   52 1
  58   32   53 1
  59   32   54 1
  60   32   55 1

#	End of record

