#	Name: ASD02560509
#	Creating user name:	WinNT
#	Creation time:	15. 06. 2019 20:25

#	Modifying user name:	WinNT
#	Modification time:	15. 06. 2019 20:25

#	Program:	/corina/corina34_cracker 3.40 0067  02.08.2006

@<TRIPOS>MOLECULE
ASD02560509
  45   47    0    0    0
SMALL
NO_CHARGES


@<TRIPOS>ATOM
   1 C1            -0.0263     1.4108    -0.1187 C.2     
   2 C2            -0.0036     0.0042    -0.0976 C.2     
   3 C3            -1.1562    -0.6953    -0.0579 C.2     
   4 N4            -2.3625    -0.0485    -0.0376 N.pl3   
   5 C5            -2.4148     1.3261    -0.0575 C.2     
   6 C6            -1.2162     2.0678    -0.0938 C.2     
   7 C7            -3.6541    -0.4979     0.0021 C.2     
   8 C8            -4.4572     0.5960     0.0057 C.2     
   9 N9            -3.6875     1.6896    -0.0307 N.2     
  10 C10           -5.9636     0.5813     0.0435 C.3     
  11 N11           -4.0693    -1.8350     0.0329 N.3     
  12 C12           -2.9243    -2.7450    -0.1038 C.3     
  13 C13           -6.4496     1.3162     1.2943 C.3     
  14 C14           -6.5119     1.2787    -1.2031 C.3     
  15 C15           -2.2387    -2.9096     1.2541 C.3     
  16 Br16           1.6512    -0.9104    -0.1257 Br      
  17 C17            1.2648     2.1869    -0.1626 C.3     
  18 C18           -3.4126    -4.1085    -0.5972 C.3     
  19 C19           -2.2200    -5.0564    -0.7395 C.3     
  20 C20           -1.5344    -5.2209     0.6184 C.3     
  21 C21           -1.0462    -3.8575     1.1118 C.3     
  22 H22           -1.1272    -1.7748    -0.0424 H       
  23 H23           -1.2433     3.1473    -0.1097 H       
  24 H24           -6.3164    -0.4498     0.0678 H       
  25 H25           -4.5899    -2.0327     0.8743 H       
  26 H26           -2.2152    -2.3317    -0.8211 H       
  27 H27           -6.0968     2.3473     1.2700 H       
  28 H28           -7.5392     1.3056     1.3216 H       
  29 H29           -6.0590     0.8194     2.1824 H       
  30 H30           -6.1656     0.7551    -2.0942 H       
  31 H31           -7.6015     1.2680    -1.1758 H       
  32 H32           -6.1591     2.3097    -1.2274 H       
  33 H33           -1.8909    -1.9382     1.6056 H       
  34 H34           -2.9478    -3.3229     1.9714 H       
  35 H35            2.1055     1.4933    -0.1726 H       
  36 H36            1.2894     2.8007    -1.0630 H       
  37 H37            1.3333     2.8281     0.7162 H       
  38 H38           -4.1216    -4.5218     0.1201 H       
  39 H39           -3.9009    -3.9913    -1.5645 H       
  40 H40           -2.5678    -6.0277    -1.0910 H       
  41 H41           -1.5109    -4.6430    -1.4568 H       
  42 H42           -2.2435    -5.6343     1.3357 H       
  43 H43           -0.6848    -5.8962     0.5170 H       
  44 H44           -0.3371    -3.4441     0.3945 H       
  45 H45           -0.5578    -3.9747     2.0792 H       
@<TRIPOS>BOND
   1    1    2 1
   2    1   17 1
   3    1    6 2
   4    2    3 2
   5    2   16 1
   6    3    4 1
   7    3   22 1
   8    4    5 1
   9    4    7 1
  10    5    6 1
  11    5    9 2
  12    6   23 1
  13    7    8 2
  14    7   11 1
  15    8    9 1
  16    8   10 1
  17   10   13 1
  18   10   14 1
  19   10   24 1
  20   11   12 1
  21   11   25 1
  22   12   18 1
  23   12   15 1
  24   12   26 1
  25   13   27 1
  26   13   28 1
  27   13   29 1
  28   14   30 1
  29   14   31 1
  30   14   32 1
  31   15   21 1
  32   15   33 1
  33   15   34 1
  34   17   35 1
  35   17   36 1
  36   17   37 1
  37   18   19 1
  38   18   38 1
  39   18   39 1
  40   19   20 1
  41   19   40 1
  42   19   41 1
  43   20   21 1
  44   20   42 1
  45   20   43 1
  46   21   44 1
  47   21   45 1

#	End of record

