#	Name: ASD01918590
#	Creating user name:	WinNT
#	Creation time:	15. 06. 2019 20:11

#	Modifying user name:	WinNT
#	Modification time:	15. 06. 2019 20:11

#	Program:	/corina/corina34_cracker 3.40 0067  02.08.2006

@<TRIPOS>MOLECULE
ASD01918590
  41   44    0    0    0
SMALL
NO_CHARGES


@<TRIPOS>ATOM
   1 C1            -0.0171     1.4118     0.0098 C.ar    
   2 C2             0.0021    -0.0041     0.0020 C.ar    
   3 N3            -1.1495    -0.6842     0.0089 N.ar    
   4 C4            -2.3060    -0.0663     0.0228 C.ar    
   5 C5            -2.3934     1.3233     0.0312 C.ar    
   6 C6            -1.2533     2.0778     0.0194 C.ar    
   7 C7             1.2035     2.1269     0.0020 C.ar    
   8 C8             2.3972     1.4281    -0.0131 C.ar    
   9 C9             2.4019     0.0352    -0.0210 C.ar    
  10 C10            1.2372    -0.6746    -0.0134 C.ar    
  11 F11            3.5809    -0.6243    -0.0362 F       
  12 C12            1.2033     3.6082     0.0094 C.ar    
  13 C13            1.9873     4.3035     0.9298 C.ar    
  14 C14            1.9837     5.6831     0.9320 C.ar    
  15 C15            1.2033     6.3774     0.0229 C.ar    
  16 C16            0.4228     5.6920    -0.8927 C.ar    
  17 C17            0.4236     4.3125    -0.9077 C.ar    
  18 Cl18           1.2031     8.1133     0.0316 Cl      
  19 S19           -3.9708     2.1081     0.0499 S.o2    
  20 C20           -4.4223     2.3313     1.7384 C.ar    
  21 O21           -3.7783     3.4087    -0.4893 O.2     
  22 O22           -4.8917     1.1709    -0.4912 O.2     
  23 C23           -4.0661     3.4887     2.3987 C.ar    
  24 C24           -5.1384     1.3475     2.3974 C.ar    
  25 C25           -5.4978     1.5149     3.7228 C.ar    
  26 C26           -5.1439     2.6656     4.3967 C.ar    
  27 C27           -4.4252     3.6641     3.7368 C.ar    
  28 C28           -4.0541     4.8609     4.4301 C.1     
  29 N29           -3.7597     5.8103     4.9801 N.1     
  30 H30           -3.2144    -0.6505     0.0276 H       
  31 H31           -1.3020     3.1567     0.0260 H       
  32 H32            3.3332     1.9669    -0.0192 H       
  33 H33            1.2641    -1.7542    -0.0201 H       
  34 H34            2.5958     3.7630     1.6397 H       
  35 H35            2.5904     6.2226     1.6442 H       
  36 H36           -0.1846     6.2385    -1.5990 H       
  37 H37           -0.1853     3.7790    -1.6225 H       
  38 H38           -3.5105     4.2574     1.8821 H       
  39 H39           -5.4183     0.4449     1.8744 H       
  40 H40           -6.0569     0.7432     4.2310 H       
  41 H41           -5.4257     2.7953     5.4312 H       
@<TRIPOS>BOND
   1    1    2 ar
   2    1    7 ar
   3    1    6 ar
   4    2    3 ar
   5    2   10 ar
   6    3    4 ar
   7    4    5 ar
   8    4   30 1
   9    5    6 ar
  10    5   19 1
  11    6   31 1
  12    7    8 ar
  13    7   12 1
  14    8    9 ar
  15    8   32 1
  16    9   10 ar
  17    9   11 1
  18   10   33 1
  19   12   13 ar
  20   12   17 ar
  21   13   14 ar
  22   13   34 1
  23   14   15 ar
  24   14   35 1
  25   15   16 ar
  26   15   18 1
  27   16   17 ar
  28   16   36 1
  29   17   37 1
  30   19   20 1
  31   19   21 2
  32   19   22 2
  33   20   23 ar
  34   20   24 ar
  35   23   27 ar
  36   23   38 1
  37   24   25 ar
  38   24   39 1
  39   25   26 ar
  40   25   40 1
  41   26   27 ar
  42   26   41 1
  43   27   28 1
  44   28   29 3

#	End of record

