#	Name: ASD01916189
#	Creating user name:	WinNT
#	Creation time:	15. 06. 2019 20:06

#	Modifying user name:	WinNT
#	Modification time:	15. 06. 2019 20:06

#	Program:	/corina/corina34_cracker 3.40 0067  02.08.2006

@<TRIPOS>MOLECULE
ASD01916189
  40   42    0    0    0
SMALL
NO_CHARGES


@<TRIPOS>ATOM
   1 C1            -0.3727     1.7029     0.1165 C.ar    
   2 C2            -0.4957     0.3521     0.3873 C.ar    
   3 N3             0.5532    -0.3707     0.7184 N.ar    
   4 C4             1.7679     0.1590     0.8072 C.ar    
   5 C5             1.9716     1.5109     0.5497 C.ar    
   6 C6             0.8816     2.3022     0.1969 C.ar    
   7 C7            -1.8509    -0.3016     0.3023 C.3     
   8 O8             1.0379     3.6253    -0.0628 O.3     
   9 C9             2.2863     4.1526     0.0399 C.ar    
  10 C10            3.2252     3.9653    -0.9695 C.ar    
  11 N11            4.4297     4.4946    -0.8320 N.ar    
  12 C12            4.7442     5.1905     0.2420 C.ar    
  13 N13            3.8829     5.3899     1.2194 N.ar    
  14 C14            2.6565     4.8983     1.1544 C.ar    
  15 C15            2.9162    -0.6975     1.1844 C.2     
  16 N16            2.7256    -2.0079     1.4356 N.am    
  17 O17            4.0299    -0.2187     1.2672 O.2     
  18 C18            3.8155    -2.8330     1.6862 C.ar    
  19 C19            3.6198    -4.2043     1.8281 C.ar    
  20 C20            4.7060    -5.0184     2.0763 C.ar    
  21 C21            5.9736    -4.4261     2.1765 C.ar    
  22 C22            6.0892    -3.0433     2.0223 C.ar    
  23 N23            5.0269    -2.3042     1.7813 N.ar    
  24 C24           -1.7829    -1.4940    -0.6540 C.3     
  25 C25            7.1320    -5.2279     2.4336 C.1     
  26 N26            8.0508    -5.8639     2.6376 N.1     
  27 H27           -1.2394     2.2855    -0.1586 H       
  28 H28            2.9600     1.9401     0.6227 H       
  29 H29           -2.1508    -0.6462     1.2920 H       
  30 H30           -2.5797     0.4196    -0.0675 H       
  31 H31            2.9744     3.3958    -1.8522 H       
  32 H32            5.7364     5.6091     0.3238 H       
  33 H33            1.9557     5.0659     1.9589 H       
  34 H34            1.8278    -2.3750     1.4414 H       
  35 H35            2.6290    -4.6260     1.7451 H       
  36 H36            4.5830    -6.0852     2.1911 H       
  37 H37            7.0600    -2.5760     2.0973 H       
  38 H38           -2.7630    -1.9669    -0.7154 H       
  39 H39           -1.4830    -1.1494    -1.6436 H       
  40 H40           -1.0541    -2.2153    -0.2841 H       
@<TRIPOS>BOND
   1    1    2 ar
   2    1    6 ar
   3    1   27 1
   4    2    3 ar
   5    2    7 1
   6    3    4 ar
   7    4    5 ar
   8    4   15 1
   9    5    6 ar
  10    5   28 1
  11    6    8 1
  12    7   24 1
  13    7   29 1
  14    7   30 1
  15    8    9 1
  16    9   10 ar
  17    9   14 ar
  18   10   11 ar
  19   10   31 1
  20   11   12 ar
  21   12   13 ar
  22   12   32 1
  23   13   14 ar
  24   14   33 1
  25   15   16 am
  26   15   17 2
  27   16   18 1
  28   16   34 1
  29   18   19 ar
  30   18   23 ar
  31   19   20 ar
  32   19   35 1
  33   20   21 ar
  34   20   36 1
  35   21   22 ar
  36   21   25 1
  37   22   23 ar
  38   22   37 1
  39   24   38 1
  40   24   39 1
  41   24   40 1
  42   25   26 3

#	End of record

