#	Name: ASD02408354
#	Creating user name:	WinNT
#	Creation time:	15. 06. 2019 20:21

#	Modifying user name:	WinNT
#	Modification time:	15. 06. 2019 20:21

#	Program:	/corina/corina34_cracker 3.40 0067  02.08.2006

@<TRIPOS>MOLECULE
ASD02408354
  55   59    0    0    0
SMALL
NO_CHARGES


@<TRIPOS>ATOM
   1 C1             0.0066     1.5060     0.1350 C.2     
   2 C2             0.0730     0.1659    -0.0929 C.2     
   3 N3            -1.0540    -0.5635    -0.2632 N.pl3   
   4 N4            -2.2316    -0.0592    -0.2233 N.2     
   5 C5            -2.4385     1.2236    -0.0105 C.2     
   6 C6            -1.2794     2.1038     0.1932 C.2     
   7 C7            -0.9272    -1.9373    -0.4949 C.ar    
   8 C8            -1.5127    -2.5120    -1.6185 C.ar    
   9 C9            -1.3847    -3.8709    -1.8433 C.ar    
  10 C10           -0.6762    -4.6562    -0.9530 C.ar    
  11 C11           -0.0937    -4.0870     0.1650 C.ar    
  12 C12           -0.2118    -2.7302     0.3932 C.ar    
  13 C13           -3.8114     1.7674     0.0284 C.2     
  14 N14           -4.3736     2.4804     1.0497 N.pl3   
  15 N15           -5.6848     2.8001     0.6755 N.2     
  16 C16           -5.9146     2.3075    -0.5155 C.2     
  17 C17           -4.7641     1.6563    -0.9604 C.2     
  18 C18           -3.7504     2.8287     2.2547 C.ar    
  19 C19           -3.9195     4.1018     2.7830 C.ar    
  20 C20           -3.3037     4.4422     3.9714 C.ar    
  21 C21           -2.5189     3.5169     4.6349 C.ar    
  22 C22           -2.3482     2.2484     4.1113 C.ar    
  23 C23           -2.9668     1.8998     2.9267 C.ar    
  24 O24           -1.4167     3.3018     0.3944 O.2     
  25 O25            1.1344     2.2465     0.3067 O.3     
  26 C26            2.3823     1.5537     0.2367 C.3     
  27 F27           -2.2054    -1.7444    -2.4881 F       
  28 C28           -2.0184    -4.4958    -3.0594 C.3     
  29 C29           -0.9460    -5.1644    -3.9550 C.3     
  30 C30           -2.9198    -5.6893    -2.6567 C.3     
  31 C31           -1.7288    -6.2272    -4.7533 C.3     
  32 F32           -2.9823    -7.9161    -3.5803 F       
  33 F33           -2.0985    -5.7133    -6.0009 F       
  34 F34           -0.9453    -7.3740    -4.9209 F       
  35 C35           -2.9838    -6.5609    -3.9279 C.3     
  36 F36           -4.1351    -6.2550    -4.6613 F       
  37 H37            1.0361    -0.3208    -0.1386 H       
  38 H38           -0.5777    -5.7169    -1.1307 H       
  39 H39            0.4586    -4.7041     0.8582 H       
  40 H40            0.2440    -2.2874     1.2665 H       
  41 H41           -6.8407     2.3942    -1.0643 H       
  42 H42           -4.6438     1.1506    -1.9071 H       
  43 H43           -4.5317     4.8251     2.2648 H       
  44 H44           -3.4348     5.4321     4.3827 H       
  45 H45           -2.0381     3.7855     5.5639 H       
  46 H46           -1.7345     1.5281     4.6317 H       
  47 H47           -2.8334     0.9089     2.5184 H       
  48 H48            2.4155     0.7860     1.0097 H       
  49 H49            2.4845     1.0874    -0.7432 H       
  50 H50            3.1987     2.2594     0.3902 H       
  51 H51           -2.5841    -3.7537    -3.6228 H       
  52 H52           -0.5012    -4.4321    -4.6288 H       
  53 H53           -0.1779    -5.6365    -3.3424 H       
  54 H54           -2.4704    -6.2462    -1.8345 H       
  55 H55           -3.9154    -5.3401    -2.3830 H       
@<TRIPOS>BOND
   1    1    2 2
   2    1   25 1
   3    1    6 1
   4    2    3 1
   5    2   37 1
   6    3    4 1
   7    3    7 1
   8    4    5 2
   9    5    6 1
  10    5   13 1
  11    6   24 2
  12    7    8 ar
  13    7   12 ar
  14    8    9 ar
  15    8   27 1
  16    9   10 ar
  17    9   28 1
  18   10   11 ar
  19   10   38 1
  20   11   12 ar
  21   11   39 1
  22   12   40 1
  23   13   14 1
  24   13   17 2
  25   14   15 1
  26   14   18 1
  27   15   16 2
  28   16   17 1
  29   16   41 1
  30   17   42 1
  31   18   19 ar
  32   18   23 ar
  33   19   20 ar
  34   19   43 1
  35   20   21 ar
  36   20   44 1
  37   21   22 ar
  38   21   45 1
  39   22   23 ar
  40   22   46 1
  41   23   47 1
  42   25   26 1
  43   26   48 1
  44   26   49 1
  45   26   50 1
  46   28   29 1
  47   28   30 1
  48   28   51 1
  49   29   31 1
  50   29   52 1
  51   29   53 1
  52   30   35 1
  53   30   54 1
  54   30   55 1
  55   31   33 1
  56   31   34 1
  57   31   35 1
  58   32   35 1
  59   35   36 1

#	End of record

