#	Name: ASD01200527
#	Creating user name:	WinNT
#	Creation time:	15. 06. 2019 19:09

#	Modifying user name:	WinNT
#	Modification time:	15. 06. 2019 19:09

#	Program:	/corina/corina34_cracker 3.40 0067  02.08.2006

@<TRIPOS>MOLECULE
ASD01200527
  31   32    0    0    0
SMALL
NO_CHARGES


@<TRIPOS>ATOM
   1 N1            -0.4966     1.1203    -0.3400 N.ar    
   2 C2            -0.2923    -0.1713    -0.1765 C.ar    
   3 C3             0.9817    -0.7091    -0.3076 C.ar    
   4 C4             2.0438     0.1372    -0.6156 C.ar    
   5 C5             1.7828     1.4880    -0.7792 C.ar    
   6 C6             0.4877     1.9481    -0.6321 C.ar    
   7 N7             1.1947    -2.0805    -0.1323 N.am    
   8 C8             2.4999    -2.6655    -0.4495 C.3     
   9 C9             0.1992    -2.8636     0.3283 C.2     
  10 O10           -0.8742    -2.3730     0.6219 O.2     
  11 O11            0.0690    -6.4560     0.7837 O.3     
  12 C12           -0.5354    -5.2655     0.7215 C.2     
  13 C13            0.4114    -4.3143     0.4762 C.2     
  14 C14            1.6876    -5.0393     0.3897 C.2     
  15 C15            1.3911    -6.3328     0.5877 C.2     
  16 C16           -2.0117    -5.0163     0.8933 C.3     
  17 F17           -2.6462    -5.0975    -0.3509 F       
  18 F18           -2.5498    -5.9781     1.7550 F       
  19 F19           -2.2095    -3.7418     1.4353 F       
  20 C20            2.3840    -7.4664     0.5897 C.3     
  21 H21           -1.1236    -0.8181     0.0622 H       
  22 H22            3.0462    -0.2498    -0.7239 H       
  23 H23            2.5823     2.1737    -1.0181 H       
  24 H24            0.2788     3.0001    -0.7589 H       
  25 H25            3.0927    -2.7468     0.4616 H       
  26 H26            2.3587    -3.6566    -0.8807 H       
  27 H27            3.0193    -2.0284    -1.1653 H       
  28 H28            2.6642    -4.6169     0.2047 H       
  29 H29            1.8628    -8.4057     0.7749 H       
  30 H30            2.8842    -7.5130    -0.3776 H       
  31 H31            3.1233    -7.3005     1.3733 H       
@<TRIPOS>BOND
   1    1    2 ar
   2    1    6 ar
   3    2    3 ar
   4    2   21 1
   5    3    4 ar
   6    3    7 1
   7    4    5 ar
   8    4   22 1
   9    5    6 ar
  10    5   23 1
  11    6   24 1
  12    7    8 1
  13    7    9 am
  14    8   25 1
  15    8   26 1
  16    8   27 1
  17    9   10 2
  18    9   13 1
  19   11   12 1
  20   11   15 1
  21   12   13 2
  22   12   16 1
  23   13   14 1
  24   14   15 2
  25   14   28 1
  26   15   20 1
  27   16   17 1
  28   16   18 1
  29   16   19 1
  30   20   29 1
  31   20   30 1
  32   20   31 1

#	End of record

