#	Name: ASD01903090
#	Creating user name:	WinNT
#	Creation time:	15. 06. 2019 19:54

#	Modifying user name:	WinNT
#	Modification time:	15. 06. 2019 19:54

#	Program:	/corina/corina34_cracker 3.40 0067  02.08.2006

@<TRIPOS>MOLECULE
ASD01903090
  29   31    0    0    0
SMALL
NO_CHARGES


@<TRIPOS>ATOM
   1 C1            -0.0155     1.2937     0.0092 C.2     
   2 N2             0.0021    -0.0041     0.0020 N.2     
   3 C3            -1.1711    -0.6210     0.0099 C.2     
   4 C4            -2.2461     0.1838     0.0245 C.2     
   5 S5            -1.6849     1.8541     0.0358 S.3     
   6 C6            -1.2887    -2.1019     0.0026 C.2     
   7 N7             1.1049     2.1111     0.0028 N.pl3   
   8 C8            -2.2765    -2.8610     0.6588 C.2     
   9 N9            -2.0462    -4.1246     0.4163 N.2     
  10 N10           -0.9112    -4.2214    -0.3979 N.pl3   
  11 C11           -0.4631    -2.9724    -0.6457 C.2     
  12 C12            0.9567     3.4958     0.0117 C.ar    
  13 N13           -0.2560     4.0258     0.0261 N.ar    
  14 C14           -0.4406     5.3326     0.0349 C.ar    
  15 C15            0.6328     6.2001     0.0293 C.ar    
  16 C16            1.9231     5.6864     0.0142 C.ar    
  17 C17            2.0864     4.3114     0.0110 C.ar    
  18 C18           -3.6848    -0.2646     0.0350 C.3     
  19 F19            3.3234     3.7683    -0.0030 F       
  20 H20            1.9917     1.7183    -0.0077 H       
  21 H21           -3.0838    -2.4676     1.2587 H       
  22 H22           -0.5171    -5.0435    -0.7292 H       
  23 H23            0.3973    -2.7103    -1.2436 H       
  24 H24           -1.4453     5.7286     0.0463 H       
  25 H25            0.4711     7.2679     0.0362 H       
  26 H26            2.7796     6.3443     0.0092 H       
  27 H27           -4.0223    -0.3787     1.0652 H       
  28 H28           -4.3011     0.4800    -0.4688 H       
  29 H29           -3.7717    -1.2194    -0.4836 H       
@<TRIPOS>BOND
   1    1    2 2
   2    1    7 1
   3    1    5 1
   4    2    3 1
   5    3    4 2
   6    3    6 1
   7    4    5 1
   8    4   18 1
   9    6    8 1
  10    6   11 2
  11    7   12 1
  12    7   20 1
  13    8    9 2
  14    8   21 1
  15    9   10 1
  16   10   11 1
  17   10   22 1
  18   11   23 1
  19   12   13 ar
  20   12   17 ar
  21   13   14 ar
  22   14   15 ar
  23   14   24 1
  24   15   16 ar
  25   15   25 1
  26   16   17 ar
  27   16   26 1
  28   17   19 1
  29   18   27 1
  30   18   28 1
  31   18   29 1

#	End of record

