#	Name: ASD02039387
#	Creating user name:	WinNT
#	Creation time:	15. 06. 2019 20:18

#	Modifying user name:	WinNT
#	Modification time:	15. 06. 2019 20:18

#	Program:	/corina/corina34_cracker 3.40 0067  02.08.2006

@<TRIPOS>MOLECULE
ASD02039387
  47   49    0    0    0
SMALL
NO_CHARGES


@<TRIPOS>ATOM
   1 C1            -0.1212     1.5198    -0.1797 C.ar    
   2 C2            -0.1105     0.1411    -0.0703 C.ar    
   3 C3            -1.2909    -0.5744    -0.1581 C.ar    
   4 C4            -2.5055     1.4784    -0.4563 C.ar    
   5 C5            -1.3118     2.1914    -0.3721 C.ar    
   6 C6            -3.7878     2.1948    -0.6635 C.ar    
   7 C7             1.1697     2.2914    -0.0824 C.3     
   8 N8             1.8257     2.3129    -1.3921 N.am    
   9 C9             1.4074     3.2852    -2.4050 C.3     
  10 C10            2.8140     1.4383    -1.6652 C.2     
  11 C11            3.1762     0.4047    -0.6798 C.2     
  12 C12            4.1874    -0.5033    -0.7982 C.2     
  13 N13            2.5682     0.1863     0.5142 N.2     
  14 C14            3.1597    -0.8072     1.1122 C.2     
  15 N15            4.1700    -1.2593     0.3247 N.pl3   
  16 O16            3.4069     1.5022    -2.7252 O.2     
  17 C17            5.0775    -2.3669     0.6345 C.3     
  18 C18           -4.0260     2.8960    -1.8477 C.ar    
  19 C19           -2.4888     0.0863    -0.3563 C.ar    
  20 C20            2.5640     4.2416    -2.7023 C.3     
  21 C21            1.0123     2.5487    -3.6865 C.3     
  22 F22           -3.6416    -0.6128    -0.4425 F       
  23 C23           -4.7790     2.1746     0.3198 C.ar    
  24 N24           -5.9195     2.8115     0.1350 N.ar    
  25 C25           -6.1683     3.4858    -0.9715 C.ar    
  26 C26           -5.2388     3.5484    -1.9928 C.ar    
  27 F27           -4.5687     1.4969     1.4694 F       
  28 H28            0.8234    -0.3790     0.0839 H       
  29 H29           -1.2766    -1.6509    -0.0719 H       
  30 H30           -1.3187     3.2687    -0.4485 H       
  31 H31            0.9595     3.3126     0.2355 H       
  32 H32            1.8254     1.8122     0.6446 H       
  33 H33            0.5535     3.8520    -2.0338 H       
  34 H34            4.8707    -0.6007    -1.6289 H       
  35 H35            2.8923    -1.2057     2.0797 H       
  36 H36            4.6551    -3.2987     0.2586 H       
  37 H37            6.0431    -2.1887     0.1613 H       
  38 H38            5.2095    -2.4373     1.7142 H       
  39 H39           -3.2827     2.9288    -2.6305 H       
  40 H40            3.3851     3.6882    -3.1580 H       
  41 H41            2.2257     5.0191    -3.3871 H       
  42 H42            2.9053     4.6988    -1.7735 H       
  43 H43            0.2541     1.8002    -3.4564 H       
  44 H44            0.6118     3.2620    -4.4068 H       
  45 H45            1.8896     2.0591    -4.1094 H       
  46 H46           -7.1150     3.9934    -1.0828 H       
  47 H47           -5.4548     4.1042    -2.8934 H       
@<TRIPOS>BOND
   1    1    2 ar
   2    1    7 1
   3    1    5 ar
   4    2    3 ar
   5    2   28 1
   6    3   19 ar
   7    3   29 1
   8    4    5 ar
   9    4    6 1
  10    4   19 ar
  11    5   30 1
  12    6   18 ar
  13    6   23 ar
  14    7    8 1
  15    7   31 1
  16    7   32 1
  17    8    9 1
  18    8   10 am
  19    9   20 1
  20    9   21 1
  21    9   33 1
  22   10   11 1
  23   10   16 2
  24   11   12 2
  25   11   13 1
  26   12   15 1
  27   12   34 1
  28   13   14 2
  29   14   15 1
  30   14   35 1
  31   15   17 1
  32   17   36 1
  33   17   37 1
  34   17   38 1
  35   18   26 ar
  36   18   39 1
  37   19   22 1
  38   20   40 1
  39   20   41 1
  40   20   42 1
  41   21   43 1
  42   21   44 1
  43   21   45 1
  44   23   24 ar
  45   23   27 1
  46   24   25 ar
  47   25   26 ar
  48   25   46 1
  49   26   47 1

#	End of record

