#	Name: ASD01230848
#	Creating user name:	WinNT
#	Creation time:	15. 06. 2019 19:15

#	Modifying user name:	WinNT
#	Modification time:	15. 06. 2019 19:15

#	Program:	/corina/corina34_cracker 3.40 0067  02.08.2006

@<TRIPOS>MOLECULE
ASD01230848
  49   52    0    0    0
SMALL
NO_CHARGES


@<TRIPOS>ATOM
   1 C1            -0.2123     2.2464     0.4919 C.3     
   2 C2            -0.3695     0.9091     1.2208 C.3     
   3 C3            -1.8374     0.5521     1.4073 C.3     
   4 C4            -2.7289     1.1480     0.3268 C.3     
   5 N5            -1.9922     1.3430    -0.9241 N.pl3   
   6 C6            -0.8392     2.0832    -0.8822 C.2     
   7 C7            -2.4603     0.7336    -2.1663 C.3     
   8 C8            -2.5501     1.8027    -3.2565 C.3     
   9 S9            -0.9487     2.6360    -3.4137 S.o2    
  10 N10           -0.3111     2.6494    -1.8952 N.am    
  11 C11            1.2491     2.5867     0.3525 C.ar    
  12 O12           -0.0446     1.8354    -4.1626 O.2     
  13 O13           -1.1332     4.0102    -3.7247 O.2     
  14 C14            1.7437     3.7491     0.9146 C.ar    
  15 C15            3.0829     4.0634     0.7883 C.ar    
  16 C16            3.9321     3.2111     0.0969 C.ar    
  17 C17            3.4332     2.0450    -0.4659 C.ar    
  18 C18            2.0942     1.7330    -0.3325 C.ar    
  19 O19            5.2497     3.5181    -0.0292 O.3     
  20 C20            6.0996     3.0953     0.9441 C.ar    
  21 C21            7.4325     3.4816     0.9183 C.ar    
  22 C22            8.2971     3.0481     1.9133 C.ar    
  23 C23            7.8270     2.2298     2.9310 C.ar    
  24 C24            6.4983     1.8467     2.9537 C.ar    
  25 C25            5.6340     2.2818     1.9672 C.ar    
  26 Cl26           8.9078     1.6863     4.1761 Cl      
  27 F27            7.8872     4.2778    -0.0739 F       
  28 O28            9.6037     3.4242     1.8910 O.3     
  29 C29            9.9429     4.6320     2.5753 C.3     
  30 H30           -0.7256     3.0333     1.0446 H       
  31 H31            0.1175     0.1261     0.6395 H       
  32 H32            0.1086     0.9767     2.1980 H       
  33 H33           -1.9407    -0.5328     1.3900 H       
  34 H34           -2.1682     0.9196     2.3787 H       
  35 H35           -3.5679     0.4761     0.1458 H       
  36 H36           -3.1108     2.1097     0.6695 H       
  37 H37           -1.7612    -0.0432    -2.4759 H       
  38 H38           -3.4448     0.2937    -2.0068 H       
  39 H39           -2.8108     1.3337    -4.2053 H       
  40 H40           -3.3148     2.5319    -2.9887 H       
  41 H41            1.0824     4.4121     1.4526 H       
  42 H42            3.4686     4.9718     1.2269 H       
  43 H43            4.0920     1.3801    -1.0048 H       
  44 H44            1.7055     0.8254    -0.7700 H       
  45 H45            6.1345     1.2097     3.7464 H       
  46 H46            4.5968     1.9813     1.9877 H       
  47 H47           11.0130     4.8155     2.4796 H       
  48 H48            9.3910     5.4643     2.1385 H       
  49 H49            9.6833     4.5373     3.6297 H       
@<TRIPOS>BOND
   1    1    2 1
   2    1   11 1
   3    1    6 1
   4    1   30 1
   5    2    3 1
   6    2   31 1
   7    2   32 1
   8    3    4 1
   9    3   33 1
  10    3   34 1
  11    4    5 1
  12    4   35 1
  13    4   36 1
  14    5    6 1
  15    5    7 1
  16    6   10 2
  17    7    8 1
  18    7   37 1
  19    7   38 1
  20    8    9 1
  21    8   39 1
  22    8   40 1
  23    9   10 am
  24    9   12 2
  25    9   13 2
  26   11   14 ar
  27   11   18 ar
  28   14   15 ar
  29   14   41 1
  30   15   16 ar
  31   15   42 1
  32   16   17 ar
  33   16   19 1
  34   17   18 ar
  35   17   43 1
  36   18   44 1
  37   19   20 1
  38   20   21 ar
  39   20   25 ar
  40   21   22 ar
  41   21   27 1
  42   22   23 ar
  43   22   28 1
  44   23   24 ar
  45   23   26 1
  46   24   25 ar
  47   24   45 1
  48   25   46 1
  49   28   29 1
  50   29   47 1
  51   29   48 1
  52   29   49 1

#	End of record

