#	Name: ASD08830069
#	Creating user name:	WinNT
#	Creation time:	15. 06. 2019 21:19

#	Modifying user name:	WinNT
#	Modification time:	15. 06. 2019 21:19

#	Program:	/corina/corina34_cracker 3.40 0067  02.08.2006

@<TRIPOS>MOLECULE
ASD08830069
  36   38    0    0    0
SMALL
NO_CHARGES


@<TRIPOS>ATOM
   1 C1            -0.0171     1.4117     0.0098 C.2     
   2 C2             0.0021    -0.0041     0.0020 C.2     
   3 C3            -1.2926    -0.7753     0.0102 C.3     
   4 C4            -0.9927    -2.2755    -0.0007 C.3     
   5 N5            -2.2547    -3.0273     0.0073 N.3     
   6 O6             1.0617    -0.5968    -0.0113 O.2     
   7 C7            -2.0181    -4.4568    -0.2410 C.3     
   8 C8            -3.3490    -5.2097    -0.1649 C.3     
   9 O9            -4.2665    -4.6418    -1.1035 O.3     
  10 C10           -4.5205    -3.2506    -0.8906 C.3     
  11 C11           -3.2015    -2.4779    -0.9741 C.3     
  12 C12            1.1981     2.2308     0.0026 C.ar    
  13 C13            0.8891     3.5894     0.0120 C.ar    
  14 S14           -0.8548     3.8102     0.0291 S.3     
  15 C15           -1.1605     2.1379     0.0188 C.2     
  16 C16            2.5473     1.8339    -0.0124 C.ar    
  17 C17            3.5466     2.7757    -0.0178 C.ar    
  18 C18            3.2344     4.1274    -0.0079 C.ar    
  19 C19            1.9210     4.5338     0.0071 C.ar    
  20 H20           -1.8592    -0.5245     0.9070 H       
  21 H21           -1.8762    -0.5150    -0.8728 H       
  22 H22           -0.4261    -2.5263    -0.8975 H       
  23 H23           -0.4091    -2.5358     0.8824 H       
  24 H24           -1.5824    -4.5869    -1.2316 H       
  25 H25           -1.3346    -4.8488     0.5123 H       
  26 H26           -3.1869    -6.2606    -0.4046 H       
  27 H27           -3.7584    -5.1242     0.8417 H       
  28 H28           -5.2057    -2.8846    -1.6552 H       
  29 H29           -4.9640    -3.1082     0.0948 H       
  30 H30           -3.3819    -1.4252    -0.7560 H       
  31 H31           -2.7847    -2.5763    -1.9764 H       
  32 H32           -2.1501     1.7053     0.0238 H       
  33 H33            2.7986     0.7836    -0.0195 H       
  34 H34            4.5802     2.4628    -0.0293 H       
  35 H35            4.0254     4.8627    -0.0115 H       
  36 H36            1.6847     5.5876     0.0148 H       
@<TRIPOS>BOND
   1    1    2 1
   2    1   12 1
   3    1   15 2
   4    2    3 1
   5    2    6 2
   6    3    4 1
   7    3   20 1
   8    3   21 1
   9    4    5 1
  10    4   22 1
  11    4   23 1
  12    5    7 1
  13    5   11 1
  14    7    8 1
  15    7   24 1
  16    7   25 1
  17    8    9 1
  18    8   26 1
  19    8   27 1
  20    9   10 1
  21   10   11 1
  22   10   28 1
  23   10   29 1
  24   11   30 1
  25   11   31 1
  26   12   13 ar
  27   12   16 ar
  28   13   14 1
  29   13   19 ar
  30   14   15 1
  31   15   32 1
  32   16   17 ar
  33   16   33 1
  34   17   18 ar
  35   17   34 1
  36   18   19 ar
  37   18   35 1
  38   19   36 1

#	End of record

