#	Name: ASD01940416
#	Creating user name:	WinNT
#	Creation time:	15. 06. 2019 20:12

#	Modifying user name:	WinNT
#	Modification time:	15. 06. 2019 20:12

#	Program:	/corina/corina34_cracker 3.40 0067  02.08.2006

@<TRIPOS>MOLECULE
ASD01940416
  38   40    0    0    0
SMALL
NO_CHARGES


@<TRIPOS>ATOM
   1 S1             1.6632     2.4733     2.6905 S.3     
   2 N2             2.1067     0.9733     3.3456 N.2     
   3 C3             2.7532     0.3128     2.4469 C.2     
   4 C4             2.9597     0.9016     1.1884 C.ar    
   5 C5             2.3960     2.1880     1.1090 C.ar    
   6 C6             2.4886     2.9462    -0.0557 C.ar    
   7 C7             3.1559     2.4164    -1.1678 C.ar    
   8 C8             3.7190     1.1315    -1.0885 C.ar    
   9 C9             3.6276     0.3957     0.0443 C.ar    
  10 C10            3.2658     3.1992    -2.4093 C.2     
  11 O11            2.7607     4.3036    -2.4786 O.2     
  12 N12            3.9260     2.6924    -3.4693 N.am    
  13 O13            4.0318     3.4455    -4.6637 O.3     
  14 C14            4.7573     2.7869    -5.7038 C.3     
  15 C15            4.8081     3.6876    -6.9395 C.3     
  16 O16            5.5610     4.8647    -6.6403 O.3     
  17 N17            1.9253     4.2131    -0.1141 N.pl3   
  18 C18            0.6381     4.3829    -0.6343 C.ar    
  19 C19            0.0246     5.6307    -0.5838 C.ar    
  20 C20           -1.2475     5.7943    -1.0995 C.ar    
  21 C21           -1.9096     4.7186    -1.6647 C.ar    
  22 C22           -1.3017     3.4775    -1.7155 C.ar    
  23 C23           -0.0279     3.3083    -1.2074 C.ar    
  24 I24           -3.8376     4.9707    -2.4446 I       
  25 F25            0.6708     6.6806    -0.0312 F       
  26 H26            3.1302    -0.6769     2.6582 H       
  27 H27            4.2333     0.7236    -1.9461 H       
  28 H28            4.0700    -0.5890     0.0774 H       
  29 H29            4.3288     1.8117    -3.4140 H       
  30 H30            5.7718     2.5791    -5.3638 H       
  31 H31            4.2600     1.8505    -5.9570 H       
  32 H32            5.2834     3.1513    -7.7608 H       
  33 H33            3.7946     3.9678    -7.2268 H       
  34 H34            5.6348     5.4831    -7.3801 H       
  35 H35            2.4243     4.9810     0.2059 H       
  36 H36           -1.7250     6.7622    -1.0610 H       
  37 H37           -1.8217     2.6402    -2.1570 H       
  38 H38            0.4473     2.3394    -1.2518 H       
@<TRIPOS>BOND
   1    1    2 1
   2    1    5 1
   3    2    3 2
   4    3    4 1
   5    3   26 1
   6    4    5 ar
   7    4    9 ar
   8    5    6 ar
   9    6    7 ar
  10    6   17 1
  11    7    8 ar
  12    7   10 1
  13    8    9 ar
  14    8   27 1
  15    9   28 1
  16   10   11 2
  17   10   12 am
  18   12   13 1
  19   12   29 1
  20   13   14 1
  21   14   15 1
  22   14   30 1
  23   14   31 1
  24   15   16 1
  25   15   32 1
  26   15   33 1
  27   16   34 1
  28   17   18 1
  29   17   35 1
  30   18   19 ar
  31   18   23 ar
  32   19   20 ar
  33   19   25 1
  34   20   21 ar
  35   20   36 1
  36   21   22 ar
  37   21   24 1
  38   22   23 ar
  39   22   37 1
  40   23   38 1

#	End of record

