#	Name: ASD01908164
#	Creating user name:	WinNT
#	Creation time:	15. 06. 2019 19:54

#	Modifying user name:	WinNT
#	Modification time:	15. 06. 2019 19:54

#	Program:	/corina/corina34_cracker 3.40 0067  02.08.2006

@<TRIPOS>MOLECULE
ASD01908164
  41   42    0    0    0
SMALL
NO_CHARGES


@<TRIPOS>ATOM
   1 N1             0.2197     1.3002    -0.1386 N.pl3   
   2 N2             0.2655    -0.0880    -0.3082 N.2     
   3 C3             1.4771    -0.5042    -0.0634 C.2     
   4 C4             2.2646     0.6189     0.2773 C.2     
   5 C5             1.4414     1.7265     0.2185 C.2     
   6 C6             3.6946     0.6099     0.6298 C.2     
   7 O7             4.2592     1.6503     0.9052 O.2     
   8 O8             4.3770    -0.5520     0.6471 O.3     
   9 C9            -0.9613     2.1467    -0.3255 C.3     
  10 C10           -1.0960     2.5064    -1.7827 C.ar    
  11 C11           -1.7342     1.6402    -2.6512 C.ar    
  12 C12           -1.8590     1.9676    -3.9875 C.ar    
  13 C13           -1.3434     3.1666    -4.4578 C.ar    
  14 C14           -0.7035     4.0340    -3.5843 C.ar    
  15 C15           -0.5862     3.7045    -2.2479 C.ar    
  16 O16           -1.4645     3.4908    -5.7720 O.3     
  17 C17           -0.9099     4.7411    -6.1856 C.3     
  18 C18            1.8412     3.1513     0.5029 C.3     
  19 C19            1.7483     3.4166     2.0068 C.3     
  20 C20            5.7830    -0.4855     1.0036 C.3     
  21 C21            6.3850    -1.8917     0.9691 C.3     
  22 H22            1.8186    -1.5277    -0.1122 H       
  23 H23           -1.8506     1.6065    -0.0008 H       
  24 H24           -0.8532     3.0566     0.2648 H       
  25 H25           -2.1351     0.7068    -2.2847 H       
  26 H26           -2.3572     1.2906    -4.6655 H       
  27 H27           -0.3012     4.9679    -3.9480 H       
  28 H28           -0.0924     4.3815    -1.5666 H       
  29 H29            0.1604     4.7500    -5.9792 H       
  30 H30           -1.0749     4.8760    -7.2545 H       
  31 H31           -1.3921     5.5512    -5.6385 H       
  32 H32            2.8654     3.3151     0.1676 H       
  33 H33            1.1725     3.8292    -0.0276 H       
  34 H34            0.7223     3.2616     2.3404 H       
  35 H35            2.4103     2.7327     2.5380 H       
  36 H36            2.0462     4.4445     2.2135 H       
  37 H37            6.3083     0.1522     0.2925 H       
  38 H38            5.8843    -0.0714     2.0067 H       
  39 H39            5.8596    -2.5293     1.6801 H       
  40 H40            6.2837    -2.3057    -0.0341 H       
  41 H41            7.4404    -1.8417     1.2366 H       
@<TRIPOS>BOND
   1    1    2 1
   2    1    5 1
   3    1    9 1
   4    2    3 2
   5    3    4 1
   6    3   22 1
   7    4    5 2
   8    4    6 1
   9    5   18 1
  10    6    7 2
  11    6    8 1
  12    8   20 1
  13    9   10 1
  14    9   23 1
  15    9   24 1
  16   10   11 ar
  17   10   15 ar
  18   11   12 ar
  19   11   25 1
  20   12   13 ar
  21   12   26 1
  22   13   14 ar
  23   13   16 1
  24   14   15 ar
  25   14   27 1
  26   15   28 1
  27   16   17 1
  28   17   29 1
  29   17   30 1
  30   17   31 1
  31   18   19 1
  32   18   32 1
  33   18   33 1
  34   19   34 1
  35   19   35 1
  36   19   36 1
  37   20   21 1
  38   20   37 1
  39   20   38 1
  40   21   39 1
  41   21   40 1
  42   21   41 1

#	End of record

