#	Name: ASD01883418
#	Creating user name:	WinNT
#	Creation time:	15. 06. 2019 19:46

#	Modifying user name:	WinNT
#	Modification time:	15. 06. 2019 19:46

#	Program:	/corina/corina34_cracker 3.40 0067  02.08.2006

@<TRIPOS>MOLECULE
ASD01883418
  55   58    0    0    0
SMALL
NO_CHARGES


@<TRIPOS>ATOM
   1 N1             0.0040     1.2790     0.3538 N.am    
   2 C2            -0.7471     1.5010    -0.7409 C.2     
   3 C3            -1.9957     0.8486    -0.8839 C.2     
   4 C4            -2.4217    -0.0211     0.1299 C.2     
   5 C5            -1.5945    -0.2126     1.2485 C.2     
   6 C6            -0.4085     0.4320     1.3313 C.2     
   7 O7            -0.3533     2.2627    -1.6077 O.2     
   8 C8            -2.8080     1.0733    -2.0416 C.1     
   9 N9            -3.4523     1.2516    -2.9600 N.1     
  10 C10            1.2940     1.9599     0.4903 C.3     
  11 C11           -3.5664    -2.0870    -0.0870 C.3     
  12 C12           -4.8487    -2.6868     0.4966 C.3     
  13 C13           -4.8261    -4.2057     0.3110 C.3     
  14 N14           -4.7223    -4.5238    -1.1189 N.3     
  15 C15           -3.4757    -3.9986    -1.6905 C.3     
  16 C16           -3.4580    -2.4735    -1.5646 C.3     
  17 C17           -4.8370    -5.9706    -1.3460 C.3     
  18 C18            1.0920     3.2962     1.2074 C.3     
  19 C19            2.3417     4.1089     1.5523 C.3     
  20 C20            1.4141     4.5724     0.4272 C.3     
  21 O21           -3.6076    -0.6636     0.0325 O.3     
  22 C22           -4.9729    -6.2380    -2.8228 C.ar    
  23 C23           -3.8447    -6.4402    -3.5952 C.ar    
  24 C24           -3.9693    -6.6855    -4.9501 C.ar    
  25 C25           -5.2222    -6.7290    -5.5321 C.ar    
  26 C26           -6.3508    -6.5277    -4.7593 C.ar    
  27 C27           -6.2264    -6.2868    -3.4041 C.ar    
  28 C28           -2.7391    -6.9049    -5.7924 C.3     
  29 F29           -2.4248    -8.2680    -5.8124 F       
  30 F30           -2.9826    -6.4633    -7.0973 F       
  31 F31           -1.6680    -6.1873    -5.2494 F       
  32 H32           -1.9037    -0.8780     2.0410 H       
  33 H33            0.2191     0.2764     2.1963 H       
  34 H34            1.9747     1.3359     1.0696 H       
  35 H35            1.7170     2.1383    -0.4983 H       
  36 H36           -2.7037    -2.4733     0.4558 H       
  37 H37           -4.9101    -2.4509     1.5590 H       
  38 H38           -5.7133    -2.2698    -0.0198 H       
  39 H39           -3.9690    -4.6234     0.8392 H       
  40 H40           -5.7443    -4.6343     0.7126 H       
  41 H41           -2.6250    -4.4173    -1.1529 H       
  42 H42           -3.4131    -4.2769    -2.7425 H       
  43 H43           -4.3008    -2.0533    -2.1135 H       
  44 H44           -2.5258    -2.0853    -1.9749 H       
  45 H45           -3.9453    -6.4697    -0.9669 H       
  46 H46           -5.7157    -6.3515    -0.8254 H       
  47 H47            0.2589     3.3318     1.9094 H       
  48 H48            2.3305     4.6794     2.4809 H       
  49 H49            3.3077     3.6915     1.2682 H       
  50 H50            1.7698     4.4599    -0.5969 H       
  51 H51            0.7927     5.4478     0.6158 H       
  52 H52           -2.8657    -6.4062    -3.1404 H       
  53 H53           -5.3195    -6.9200    -6.5906 H       
  54 H54           -7.3298    -6.5614    -5.2142 H       
  55 H55           -7.1081    -6.1295    -2.8004 H       
@<TRIPOS>BOND
   1    1    2 am
   2    1   10 1
   3    1    6 1
   4    2    3 1
   5    2    7 2
   6    3    4 2
   7    3    8 1
   8    4    5 1
   9    4   21 1
  10    5    6 2
  11    5   32 1
  12    6   33 1
  13    8    9 3
  14   10   18 1
  15   10   34 1
  16   10   35 1
  17   11   12 1
  18   11   21 1
  19   11   16 1
  20   11   36 1
  21   12   13 1
  22   12   37 1
  23   12   38 1
  24   13   14 1
  25   13   39 1
  26   13   40 1
  27   14   15 1
  28   14   17 1
  29   15   16 1
  30   15   41 1
  31   15   42 1
  32   16   43 1
  33   16   44 1
  34   17   22 1
  35   17   45 1
  36   17   46 1
  37   18   19 1
  38   18   20 1
  39   18   47 1
  40   19   20 1
  41   19   48 1
  42   19   49 1
  43   20   50 1
  44   20   51 1
  45   22   23 ar
  46   22   27 ar
  47   23   24 ar
  48   23   52 1
  49   24   25 ar
  50   24   28 1
  51   25   26 ar
  52   25   53 1
  53   26   27 ar
  54   26   54 1
  55   27   55 1
  56   28   29 1
  57   28   30 1
  58   28   31 1

#	End of record

