#	Name: ASD07301396
#	Creating user name:	WinNT
#	Creation time:	15. 06. 2019 21:11

#	Modifying user name:	WinNT
#	Modification time:	15. 06. 2019 21:11

#	Program:	/corina/corina34_cracker 3.40 0067  02.08.2006

@<TRIPOS>MOLECULE
ASD07301396
  30   31    0    0    0
SMALL
NO_CHARGES


@<TRIPOS>ATOM
   1 C1            -0.0179     1.4667     0.0101 C.2     
   2 C2             0.0021    -0.0041     0.0020 C.2     
   3 C3             1.2776    -0.6366    -0.0136 C.2     
   4 C4             2.3787     0.1588    -0.0198 C.2     
   5 N5             2.2595     1.5102    -0.0110 N.pl3   
   6 N6             1.1311     2.1179     0.0026 N.2     
   7 O7            -1.0312    -0.6548     0.0088 O.2     
   8 O8             1.3897    -1.9914    -0.0215 O.3     
   9 C9             2.7120    -2.5329    -0.0370 C.3     
  10 C10            3.4276     2.2796    -0.0170 C.ar    
  11 C11            3.6391     3.2346     0.9731 C.ar    
  12 C12            4.7955     3.9926     0.9634 C.ar    
  13 C13            5.7404     3.8018    -0.0290 C.ar    
  14 C14            5.5318     2.8534    -1.0143 C.ar    
  15 C15            4.3817     2.0886    -1.0078 C.ar    
  16 I16            7.4911     4.9524    -0.0399 I       
  17 F17            2.7159     3.4209     1.9418 F       
  18 C18           -1.2917     2.1973     0.0202 C.2     
  19 O19           -2.3404     1.5879     0.0218 O.2     
  20 C20           -1.2959     3.7043     0.0284 C.3     
  21 H21            3.3609    -0.2900    -0.0316 H       
  22 H22            2.6588    -3.6216    -0.0420 H       
  23 H23            3.2343    -2.1905    -0.9304 H       
  24 H24            3.2516    -2.1995     0.8494 H       
  25 H25            4.9611     4.7342     1.7308 H       
  26 H26            6.2716     2.7077    -1.7875 H       
  27 H27            4.2227     1.3453    -1.7750 H       
  28 H28           -0.2692     4.0705     0.0255 H       
  29 H29           -1.8149     4.0710    -0.8572 H       
  30 H30           -1.8065     4.0614     0.9227 H       
@<TRIPOS>BOND
   1    1    2 1
   2    1    6 2
   3    1   18 1
   4    2    3 1
   5    2    7 2
   6    3    4 2
   7    3    8 1
   8    4    5 1
   9    4   21 1
  10    5    6 1
  11    5   10 1
  12    8    9 1
  13    9   22 1
  14    9   23 1
  15    9   24 1
  16   10   11 ar
  17   10   15 ar
  18   11   12 ar
  19   11   17 1
  20   12   13 ar
  21   12   25 1
  22   13   14 ar
  23   13   16 1
  24   14   15 ar
  25   14   26 1
  26   15   27 1
  27   18   19 2
  28   18   20 1
  29   20   28 1
  30   20   29 1
  31   20   30 1

#	End of record

