#	Name: ASD06590087
#	Creating user name:	WinNT
#	Creation time:	15. 06. 2019 21:06

#	Modifying user name:	WinNT
#	Modification time:	15. 06. 2019 21:06

#	Program:	/corina/corina34_cracker 3.40 0067  02.08.2006

@<TRIPOS>MOLECULE
ASD06590087
 318  319    0    0    0
SMALL
NO_CHARGES


@<TRIPOS>ATOM
   1 C1            -1.6055     1.4365     4.6224 C.2     
   2 O2            -0.9475     0.7743     3.8482 O.2     
   3 N3             0.4828     1.7502     5.8181 N.am    
   4 C4            -0.9456     2.0757     5.8169 C.3     
   5 C5            -1.1227     3.5937     5.7459 C.3     
   6 C6            -5.0346     1.3283     3.2426 C.2     
   7 O7            -5.5002     2.0172     4.1255 O.2     
   8 N8            -2.9259     1.6054     4.4113 N.am    
   9 C9            -3.5663     0.9890     3.2467 C.3     
  10 C10           -8.0152     0.1396     1.4916 C.2     
  11 O11           -7.4213    -0.7968     1.0002 O.2     
  12 N12           -5.8302     0.8663     2.2577 N.am    
  13 C13           -7.2576     1.1961     2.2537 C.3     
  14 C14           -7.4649     2.5557     1.5833 C.3     
  15 C15           -6.7998     3.6463     2.4255 C.3     
  16 C16           -7.0071     5.0059     1.7551 C.3     
  17 N17           -6.3703     6.0501     2.5615 N.pl3   
  18 C18           -6.4256     7.3623     2.1549 C.2     
  19 N19           -5.8590     8.2914     2.8724 N.2     
  20 N20           -7.0785     7.6945     0.9915 N.pl3   
  21 C21          -11.3698    -0.2044     0.0805 C.2     
  22 O22          -11.6406     0.9578     0.2969 O.2     
  23 N23           -9.3527     0.2352     1.3561 N.am    
  24 C24          -10.0892    -0.7919     0.6152 C.3     
  25 C25          -10.4145    -1.9595     1.5489 C.3     
  26 O26          -11.3089    -1.5167     2.5716 O.3     
  27 C27          -14.5368    -0.6899     0.0065 C.2     
  28 O28          -14.2198    -1.2657     1.0257 O.2     
  29 N29          -12.2141    -0.9706    -0.6383 N.am    
  30 C30          -13.5084    -0.4327    -1.0647 C.3     
  31 C31          -13.9422    -1.1166    -2.3628 C.3     
  32 C32          -12.9930    -0.7393    -3.4708 C.2     
  33 O33          -12.0167    -0.0701    -3.2282 O.2     
  34 O34          -13.2321    -1.1467    -4.7272 O.3     
  35 C35          -18.1817    -0.5629     0.2535 C.2     
  36 O36          -18.3126    -0.3943    -0.9404 O.2     
  37 N37          -15.8087    -0.2799    -0.1682 N.am    
  38 C38          -16.8084    -0.5299     0.8731 C.3     
  39 C39          -16.7469     0.5864     1.9176 C.3     
  40 C40          -15.3199     0.7020     2.4571 C.3     
  41 O41          -17.1301     1.8242     1.3150 O.3     
  42 C42          -21.6291    -0.4548     1.4646 C.2     
  43 O43          -21.2819    -0.1987     2.5981 O.2     
  44 N44          -19.2646    -0.7799     1.0260 N.am    
  45 C45          -20.5996    -0.8120     0.4237 C.3     
  46 C46          -20.8832    -2.2164    -0.1133 C.3     
  47 C47          -19.9158    -2.5303    -1.2562 C.3     
  48 C48          -20.1994    -3.9347    -1.7932 C.3     
  49 N49          -19.2730    -4.2353    -2.8876 N.pl3   
  50 C50          -19.3386    -5.4492    -3.5298 C.2     
  51 N51          -20.2250    -6.3325    -3.1650 N.2     
  52 N52          -18.4693    -5.7313    -4.5569 N.pl3   
  53 C53          -25.2658    -0.6715     1.7660 C.2     
  54 O54          -25.3672    -1.3239     0.7486 O.2     
  55 N55          -22.9358    -0.4201     1.1360 N.am    
  56 C56          -23.9366    -0.0729     2.1479 C.3     
  57 C57          -24.0684     1.4490     2.2337 C.3     
  58 C58          -22.7548     2.0469     2.7417 C.3     
  59 C59          -22.8847     3.5459     2.8262 C.2     
  60 O60          -23.9253     4.0832     2.5111 O.2     
  61 N61          -21.8443     4.2895     3.2519 N.am    
  62 C62          -28.7452    -0.2604     2.8091 C.2     
  63 O63          -28.4834     0.7033     3.4973 O.2     
  64 N64          -26.3420    -0.4818     2.5549 N.am    
  65 C65          -27.6341    -1.0637     2.1836 C.3     
  66 C66          -27.7054    -2.5081     2.6831 C.3     
  67 C67          -26.6573    -3.3519     1.9550 C.3     
  68 C68          -26.7275    -4.7746     2.4471 C.2     
  69 O69          -27.5363    -5.0832     3.2965 O.2     
  70 N70          -25.8916    -5.7040     1.9432 N.am    
  71 C71          -32.3302    -0.7016     3.3711 C.2     
  72 O72          -32.3007    -1.8596     3.0121 O.2     
  73 N73          -30.0297    -0.6129     2.6037 N.am    
  74 C74          -31.1098     0.1681     3.2118 C.3     
  75 C75          -31.4463     1.3594     2.3128 C.3     
  76 C76          -30.2647     2.2928     2.2524 C.ar    
  77 C77          -29.3007     2.1235     1.2758 C.ar    
  78 C78          -28.2163     2.9775     1.2187 C.ar    
  79 C79          -28.0953     4.0059     2.1420 C.ar    
  80 O80          -27.0297     4.8476     2.0876 O.3     
  81 C81          -29.0642     4.1739     3.1206 C.ar    
  82 C82          -30.1493     3.3204     3.1703 C.ar    
  83 C83          -35.8744    -0.1724     4.0935 C.2     
  84 O84          -35.7725     1.0319     3.9926 O.2     
  85 N85          -33.4545    -0.1924     3.9126 N.am    
  86 C86          -34.6409    -1.0377     4.0675 C.3     
  87 C87          -34.5406    -1.8223     5.3771 C.3     
  88 C88          -33.3597    -2.7921     5.3016 C.3     
  89 C89          -33.2594    -3.5767     6.6112 C.3     
  90 N90          -32.1286    -4.5053     6.5389 N.pl3   
  91 C91          -31.8402    -5.3218     7.6067 C.2     
  92 N92          -32.5728    -5.2697     8.6835 N.2     
  93 N93          -30.7790    -6.1932     7.5388 N.pl3   
  94 C94          -39.3895    -0.6104     4.9963 C.2     
  95 O95          -39.1911    -1.7140     5.4586 O.2     
  96 N96          -37.0908    -0.7368     4.2288 N.am    
  97 C97          -38.2899     0.1045     4.2541 C.3     
  98 C98          -38.7434     0.3892     2.8209 C.3     
  99 C99          -37.6789     1.2232     2.1053 C.3     
 100 C100         -38.1325     1.5080     0.6721 C.3     
 101 C101         -37.0679     2.3420    -0.0435 C.3     
 102 N102         -37.5034     2.6154    -1.4196 N.3     
 103 C103         -42.9882    -0.2727     5.4498 C.2     
 104 O104         -43.1126     0.7157     4.7580 O.2     
 105 N105         -40.5934    -0.0235     5.1463 N.am    
 106 C106         -41.6267    -0.6688     5.9601 C.3     
 107 C107         -41.4792    -0.2253     7.4170 C.3     
 108 C108         -42.4490    -1.0211     8.2929 C.3     
 109 C109         -42.0353    -2.4940     8.3036 C.3     
 110 C110         -42.4152    -0.4715     9.7204 C.3     
 111 C111         -46.4668    -1.2077     6.0726 C.2     
 112 O112         -46.1875    -1.7754     7.1073 O.2     
 113 N113         -44.0676    -1.0169     5.7621 N.am    
 114 C114         -45.3705    -0.7019     5.1708 C.3     
 115 C115         -45.4852    -1.3749     3.8016 C.3     
 116 C116         -44.4516    -0.7714     2.8485 C.3     
 117 C117         -44.4809    -1.5279     1.5189 C.3     
 118 C118         -44.7824     0.7023     2.6042 C.3     
 119 C119         -50.0682    -1.7691     5.7930 C.2     
 120 O120         -50.0652    -1.5562     4.5990 O.2     
 121 N121         -47.7579    -1.0293     5.7292 N.am    
 122 C122         -48.8237    -1.5210     6.6058 C.3     
 123 C123         -49.1189    -0.4771     7.6847 C.3     
 124 C124         -47.9126    -0.3188     8.5740 C.ar    
 125 C125         -46.9421     0.6151     8.2626 C.ar    
 126 C126         -45.8356     0.7603     9.0783 C.ar    
 127 C127         -45.6997    -0.0281    10.2056 C.ar    
 128 C128         -46.6705    -0.9614    10.5174 C.ar    
 129 C129         -47.7792    -1.1036     9.7041 C.ar    
 130 C130         -53.6050    -2.3703     6.4948 C.2     
 131 O131         -53.4709    -2.1240     7.6701 O.2     
 132 N132         -51.1846    -2.2276     6.3929 N.am    
 133 C133         -52.3944    -2.4688     5.6027 C.3     
 134 C134         -52.3292    -3.8666     4.9840 C.3     
 135 O135         -54.8322    -2.5563     5.9838 O.3     
 136 C136           1.1741     1.7553     6.9750 C.2     
 137 O137           0.6138     2.0293     8.0151 O.2     
 138 C138          16.8637    -0.4131    16.9912 C.3     
 139 C139          15.3719    -0.0732    16.9900 C.3     
 140 C140          14.8322    -0.1512    15.5605 C.3     
 141 C141          13.3405     0.1888    15.5593 C.3     
 142 C142          12.8008     0.1108    14.1298 C.3     
 143 C143          11.3090     0.4507    14.1286 C.3     
 144 C144          10.7693     0.3727    12.6991 C.3     
 145 C145           9.2776     0.7126    12.6979 C.3     
 146 C146           8.7379     0.6346    11.2683 C.3     
 147 C147           7.2461     0.9746    11.2671 C.3     
 148 C148           6.7064     0.8966     9.8376 C.3     
 149 C149           5.2146     1.2365     9.8364 C.3     
 150 C150           4.6749     1.1585     8.4069 C.3     
 151 C151           3.1832     1.4984     8.4057 C.3     
 152 C152           2.6435     1.4204     6.9762 C.3     
 153 H153           0.9309     1.5310     4.9862 H       
 154 H154          -1.4049     1.6987     6.7307 H       
 155 H155          -0.6634     3.9707     4.8321 H       
 156 H156          -2.1855     3.8359     5.7450 H       
 157 H157          -0.6454     4.0561     6.6099 H       
 158 H158          -3.4522     2.1350     5.0305 H       
 159 H159          -3.4435    -0.0930     3.2949 H       
 160 H160          -3.1034     1.3669     2.3351 H       
 161 H161          -5.4577     0.3153     1.5516 H       
 162 H162          -7.6239     1.2372     3.2794 H       
 163 H163          -7.0191     2.5422     0.5887 H       
 164 H164          -8.5322     2.7610     1.5004 H       
 165 H165          -7.2456     3.6598     3.4201 H       
 166 H166          -5.7325     3.4411     2.5084 H       
 167 H167          -6.5614     4.9924     0.7606 H       
 168 H168          -8.0744     5.2111     1.6722 H       
 169 H169          -5.9096     5.8158     3.3824 H       
 170 H170          -5.8980     9.2171     2.5855 H       
 171 H171          -7.5002     7.0031     0.4576 H       
 172 H172          -7.1176     8.6203     0.7046 H       
 173 H173          -9.8277     0.9841     1.7491 H       
 174 H174          -9.4791    -1.1492    -0.2144 H       
 175 H175         -10.8833    -2.7612     0.9783 H       
 176 H176          -9.4952    -2.3274     2.0045 H       
 177 H177         -11.5588    -2.2067     3.2013 H       
 178 H178         -11.9649    -1.8781    -0.8732 H       
 179 H179         -13.4185     0.6406    -1.2319 H       
 180 H180         -13.9292    -2.1979    -2.2257 H       
 181 H181         -14.9507    -0.7954    -2.6232 H       
 182 H182         -12.5951    -0.8799    -5.4040 H       
 183 H183         -16.0623     0.1806    -0.9834 H       
 184 H184         -16.6027    -1.4872     1.3520 H       
 185 H185         -17.4275     0.3552     2.7370 H       
 186 H186         -15.2761     1.4973     3.2012 H       
 187 H187         -15.0276    -0.2421     2.9168 H       
 188 H188         -14.6393     0.9333     1.6377 H       
 189 H189         -17.1141     2.5780     1.9205 H       
 190 H190         -19.1600    -0.9148     1.9809 H       
 191 H191         -20.6463    -0.0938    -0.3949 H       
 192 H192         -20.7496    -2.9449     0.6864 H       
 193 H193         -21.9081    -2.2646    -0.4812 H       
 194 H194         -20.0494    -1.8018    -2.0559 H       
 195 H195         -18.8909    -2.4821    -0.8884 H       
 196 H196         -20.0657    -4.6633    -0.9935 H       
 197 H197         -21.2243    -3.9829    -2.1611 H       
 198 H198         -18.6134    -3.5780    -3.1591 H       
 199 H199         -20.2712    -7.1889    -3.6181 H       
 200 H200         -17.8097    -5.0740    -4.8284 H       
 201 H201         -18.5156    -6.5877    -5.0100 H       
 202 H202         -23.2135    -0.6250     0.2295 H       
 203 H203         -23.6259    -0.4658     3.1160 H       
 204 H204         -24.2922     1.8506     1.2454 H       
 205 H205         -24.8743     1.7058     2.9212 H       
 206 H206         -22.5311     1.6453     3.7300 H       
 207 H207         -21.9489     1.7902     2.0542 H       
 208 H208         -21.0120     3.8598     3.5039 H       
 209 H209         -21.9279     5.2544     3.3063 H       
 210 H210         -26.2609     0.0400     3.3686 H       
 211 H211         -27.7411    -1.0487     1.0989 H       
 212 H212         -27.5101    -2.5318     3.7552 H       
 213 H213         -28.6983    -2.9122     2.4857 H       
 214 H214         -26.8526    -3.3282     0.8829 H       
 215 H215         -25.6644    -2.9478     2.1524 H       
 216 H216         -25.2447    -5.4571     1.2638 H       
 217 H217         -25.9368    -6.6197     2.2599 H       
 218 H218         -30.2391    -1.3837     2.0533 H       
 219 H219         -30.7909     0.5293     4.1895 H       
 220 H220         -31.6794     1.0030     1.3094 H       
 221 H221         -32.3076     1.8895     2.7193 H       
 222 H222         -29.3953     1.3228     0.5573 H       
 223 H223         -27.4632     2.8445     0.4561 H       
 224 H224         -27.1723     5.6273     1.5337 H       
 225 H225         -28.9720     4.9734     3.8407 H       
 226 H226         -30.9061     3.4534     3.9292 H       
 227 H227         -33.4781     0.7339     4.1998 H       
 228 H228         -34.7029    -1.7337     3.2308 H       
 229 H229         -34.3895    -1.1296     6.2050 H       
 230 H230         -35.4617    -2.3831     5.5362 H       
 231 H231         -33.5108    -3.4849     4.4737 H       
 232 H232         -32.4386    -2.2313     5.1425 H       
 233 H233         -33.1083    -2.8840     7.4391 H       
 234 H234         -34.1805    -4.1375     6.7703 H       
 235 H235         -31.5834    -4.5441     5.7375 H       
 236 H236         -32.3693    -5.8458     9.4369 H       
 237 H237         -30.2338    -6.2320     6.7375 H       
 238 H238         -30.5755    -6.7693     8.2922 H       
 239 H239         -37.1723    -1.7000     4.3095 H       
 240 H240         -38.0637     1.0446     4.7572 H       
 241 H241         -38.8843    -0.5526     2.2905 H       
 242 H242         -39.6841     0.9397     2.8400 H       
 243 H243         -37.5380     2.1650     2.6357 H       
 244 H244         -36.7383     0.6728     2.0862 H       
 245 H245         -38.2733     0.5662     0.1417 H       
 246 H246         -39.0731     2.0584     0.6912 H       
 247 H247         -36.9270     3.2838     0.4869 H       
 248 H248         -36.1273     1.7915    -0.0627 H       
 249 H249         -38.4050     3.0682    -1.4304 H       
 250 H250         -36.8167     3.1653    -1.9137 H       
 251 H251         -40.7758     0.8262     4.7154 H       
 252 H252         -41.5157    -1.7512     5.8968 H       
 253 H253         -40.4572    -0.4057     7.7500 H       
 254 H254         -41.7054     0.8379     7.4978 H       
 255 H255         -43.4587    -0.9301     7.8924 H       
 256 H256         -42.6675    -3.0439     9.0007 H       
 257 H257         -42.1498    -2.9108     7.3029 H       
 258 H258         -40.9939    -2.5767     8.6146 H       
 259 H259         -42.7099     0.5779     9.7129 H       
 260 H260         -43.1060    -1.0384    10.3445 H       
 261 H261         -41.4055    -0.5625    10.1209 H       
 262 H262         -43.9818    -1.7610     6.3784 H       
 263 H263         -45.4651     0.3777     5.0541 H       
 264 H264         -45.3023    -2.4444     3.9059 H       
 265 H265         -46.4861    -1.2148     3.4007 H       
 266 H266         -43.4586    -0.8524     3.2908 H       
 267 H267         -45.4739    -1.4469     1.0766 H       
 268 H268         -43.7446    -1.0979     0.8399 H       
 269 H269         -44.2452    -2.5777     1.6930 H       
 270 H270         -44.7615     1.2412     3.5514 H       
 271 H271         -44.0460     1.1323     1.9252 H       
 272 H272         -45.7753     0.7833     2.1619 H       
 273 H273         -47.9813    -0.5753     4.9016 H       
 274 H274         -48.5062    -2.4511     7.0773 H       
 275 H275         -49.3502     0.4778     7.2128 H       
 276 H276         -49.9704    -0.8028     8.2821 H       
 277 H277         -47.0484     1.2311     7.3819 H       
 278 H278         -45.0771     1.4895     8.8346 H       
 279 H279         -44.8348     0.0848    10.8424 H       
 280 H280         -46.5641    -1.5776    11.3980 H       
 281 H281         -48.5395    -1.8302     9.9498 H       
 282 H282         -51.1870    -2.3979     7.3478 H       
 283 H283         -52.4654    -1.7237     4.8104 H       
 284 H284         -52.2582    -4.6117     5.7763 H       
 285 H285         -53.2294    -4.0460     4.3961 H       
 286 H286         -51.4536    -3.9378     4.3387 H       
 287 H287         -55.5780    -2.4832     6.5950 H       
 288 H288          17.3988     0.2977    16.3615 H       
 289 H289          17.2482    -0.3575    18.0096 H       
 290 H290          17.0068    -1.4216    16.6033 H       
 291 H291          14.8368    -0.7840    17.6197 H       
 292 H292          15.2288     0.9354    17.3779 H       
 293 H293          15.3674     0.5596    14.9308 H       
 294 H294          14.9754    -1.1597    15.1726 H       
 295 H295          12.8054    -0.5220    16.1890 H       
 296 H296          13.1973     1.1973    15.9472 H       
 297 H297          13.3359     0.8216    13.5001 H       
 298 H298          12.9439    -0.8978    13.7419 H       
 299 H299          10.7739    -0.2601    14.7583 H       
 300 H300          11.1659     1.4593    14.5165 H       
 301 H301          11.3044     1.0835    12.0694 H       
 302 H302          10.9125    -0.6358    12.3112 H       
 303 H303           8.7424     0.0018    13.3275 H       
 304 H304           9.1344     1.7212    13.0857 H       
 305 H305           9.2730     1.3454    10.6386 H       
 306 H306           8.8810    -0.3739    10.8805 H       
 307 H307           6.7110     0.2638    11.8968 H       
 308 H308           7.1030     1.9831    11.6550 H       
 309 H309           7.2415     1.6074     9.2079 H       
 310 H310           6.8495    -0.1120     9.4497 H       
 311 H311           4.6795     0.5257    10.4661 H       
 312 H312           5.0715     2.2451    10.2243 H       
 313 H313           5.2101     1.8693     7.7772 H       
 314 H314           4.8181     0.1500     8.0190 H       
 315 H315           2.6481     0.7876     9.0354 H       
 316 H316           3.0400     2.5070     8.7936 H       
 317 H317           2.7866     0.4119     6.5883 H       
 318 H318           3.1786     2.1312     6.3465 H       
@<TRIPOS>BOND
   1    1    2 2
   2    1    4 1
   3    1    8 am
   4    3  136 am
   5    3    4 1
   6    3  153 1
   7    4    5 1
   8    4  154 1
   9    5  155 1
  10    5  156 1
  11    5  157 1
  12    6    7 2
  13    6    9 1
  14    6   12 am
  15    8    9 1
  16    8  158 1
  17    9  159 1
  18    9  160 1
  19   10   11 2
  20   10   13 1
  21   10   23 am
  22   12   13 1
  23   12  161 1
  24   13   14 1
  25   13  162 1
  26   14   15 1
  27   14  163 1
  28   14  164 1
  29   15   16 1
  30   15  165 1
  31   15  166 1
  32   16   17 1
  33   16  167 1
  34   16  168 1
  35   17   18 1
  36   17  169 1
  37   18   19 2
  38   18   20 1
  39   19  170 1
  40   20  171 1
  41   20  172 1
  42   21   22 2
  43   21   24 1
  44   21   29 am
  45   23   24 1
  46   23  173 1
  47   24   25 1
  48   24  174 1
  49   25   26 1
  50   25  175 1
  51   25  176 1
  52   26  177 1
  53   27   28 2
  54   27   30 1
  55   27   37 am
  56   29   30 1
  57   29  178 1
  58   30   31 1
  59   30  179 1
  60   31   32 1
  61   31  180 1
  62   31  181 1
  63   32   33 2
  64   32   34 1
  65   34  182 1
  66   35   36 2
  67   35   38 1
  68   35   44 am
  69   37   38 1
  70   37  183 1
  71   38   39 1
  72   38  184 1
  73   39   40 1
  74   39   41 1
  75   39  185 1
  76   40  186 1
  77   40  187 1
  78   40  188 1
  79   41  189 1
  80   42   43 2
  81   42   45 1
  82   42   55 am
  83   44   45 1
  84   44  190 1
  85   45   46 1
  86   45  191 1
  87   46   47 1
  88   46  192 1
  89   46  193 1
  90   47   48 1
  91   47  194 1
  92   47  195 1
  93   48   49 1
  94   48  196 1
  95   48  197 1
  96   49   50 1
  97   49  198 1
  98   50   51 2
  99   50   52 1
 100   51  199 1
 101   52  200 1
 102   52  201 1
 103   53   54 2
 104   53   56 1
 105   53   64 am
 106   55   56 1
 107   55  202 1
 108   56   57 1
 109   56  203 1
 110   57   58 1
 111   57  204 1
 112   57  205 1
 113   58   59 1
 114   58  206 1
 115   58  207 1
 116   59   60 2
 117   59   61 am
 118   61  208 1
 119   61  209 1
 120   62   63 2
 121   62   65 1
 122   62   73 am
 123   64   65 1
 124   64  210 1
 125   65   66 1
 126   65  211 1
 127   66   67 1
 128   66  212 1
 129   66  213 1
 130   67   68 1
 131   67  214 1
 132   67  215 1
 133   68   69 2
 134   68   70 am
 135   70  216 1
 136   70  217 1
 137   71   72 2
 138   71   74 1
 139   71   85 am
 140   73   74 1
 141   73  218 1
 142   74   75 1
 143   74  219 1
 144   75   76 1
 145   75  220 1
 146   75  221 1
 147   76   77 ar
 148   76   82 ar
 149   77   78 ar
 150   77  222 1
 151   78   79 ar
 152   78  223 1
 153   79   80 1
 154   79   81 ar
 155   80  224 1
 156   81   82 ar
 157   81  225 1
 158   82  226 1
 159   83   84 2
 160   83   86 1
 161   83   96 am
 162   85   86 1
 163   85  227 1
 164   86   87 1
 165   86  228 1
 166   87   88 1
 167   87  229 1
 168   87  230 1
 169   88   89 1
 170   88  231 1
 171   88  232 1
 172   89   90 1
 173   89  233 1
 174   89  234 1
 175   90   91 1
 176   90  235 1
 177   91   92 2
 178   91   93 1
 179   92  236 1
 180   93  237 1
 181   93  238 1
 182   94   95 2
 183   94   97 1
 184   94  105 am
 185   96   97 1
 186   96  239 1
 187   97   98 1
 188   97  240 1
 189   98   99 1
 190   98  241 1
 191   98  242 1
 192   99  100 1
 193   99  243 1
 194   99  244 1
 195  100  101 1
 196  100  245 1
 197  100  246 1
 198  101  102 1
 199  101  247 1
 200  101  248 1
 201  102  249 1
 202  102  250 1
 203  103  104 2
 204  103  106 1
 205  103  113 am
 206  105  106 1
 207  105  251 1
 208  106  107 1
 209  106  252 1
 210  107  108 1
 211  107  253 1
 212  107  254 1
 213  108  109 1
 214  108  110 1
 215  108  255 1
 216  109  256 1
 217  109  257 1
 218  109  258 1
 219  110  259 1
 220  110  260 1
 221  110  261 1
 222  111  112 2
 223  111  114 1
 224  111  121 am
 225  113  114 1
 226  113  262 1
 227  114  115 1
 228  114  263 1
 229  115  116 1
 230  115  264 1
 231  115  265 1
 232  116  117 1
 233  116  118 1
 234  116  266 1
 235  117  267 1
 236  117  268 1
 237  117  269 1
 238  118  270 1
 239  118  271 1
 240  118  272 1
 241  119  120 2
 242  119  122 1
 243  119  132 am
 244  121  122 1
 245  121  273 1
 246  122  123 1
 247  122  274 1
 248  123  124 1
 249  123  275 1
 250  123  276 1
 251  124  125 ar
 252  124  129 ar
 253  125  126 ar
 254  125  277 1
 255  126  127 ar
 256  126  278 1
 257  127  128 ar
 258  127  279 1
 259  128  129 ar
 260  128  280 1
 261  129  281 1
 262  130  131 2
 263  130  133 1
 264  130  135 1
 265  132  133 1
 266  132  282 1
 267  133  134 1
 268  133  283 1
 269  134  284 1
 270  134  285 1
 271  134  286 1
 272  135  287 1
 273  136  137 2
 274  136  152 1
 275  138  139 1
 276  138  288 1
 277  138  289 1
 278  138  290 1
 279  139  140 1
 280  139  291 1
 281  139  292 1
 282  140  141 1
 283  140  293 1
 284  140  294 1
 285  141  142 1
 286  141  295 1
 287  141  296 1
 288  142  143 1
 289  142  297 1
 290  142  298 1
 291  143  144 1
 292  143  299 1
 293  143  300 1
 294  144  145 1
 295  144  301 1
 296  144  302 1
 297  145  146 1
 298  145  303 1
 299  145  304 1
 300  146  147 1
 301  146  305 1
 302  146  306 1
 303  147  148 1
 304  147  307 1
 305  147  308 1
 306  148  149 1
 307  148  309 1
 308  148  310 1
 309  149  150 1
 310  149  311 1
 311  149  312 1
 312  150  151 1
 313  150  313 1
 314  150  314 1
 315  151  152 1
 316  151  315 1
 317  151  316 1
 318  152  317 1
 319  152  318 1

#	End of record

