#	Name: ASD01811599
#	Creating user name:	WinNT
#	Creation time:	15. 06. 2019 19:27

#	Modifying user name:	WinNT
#	Modification time:	15. 06. 2019 19:27

#	Program:	/corina/corina34_cracker 3.40 0067  02.08.2006

@<TRIPOS>MOLECULE
ASD01811599
  63   67    0    0    0
SMALL
NO_CHARGES


@<TRIPOS>ATOM
   1 C1            -0.1275     1.5418    -0.2503 C.ar    
   2 C2             0.1024     0.1748    -0.0855 C.ar    
   3 C3            -0.9503    -0.6785     0.1815 C.ar    
   4 C4            -2.2358    -0.1867     0.2871 C.ar    
   5 C5            -2.4796     1.1791     0.1249 C.ar    
   6 C6            -1.4212     2.0458    -0.1388 C.ar    
   7 C7            -3.8571     1.7045     0.2384 C.2     
   8 O8            -4.5519     1.3891     1.1845 O.2     
   9 N9            -4.3423     2.5332    -0.7073 N.am    
  10 C10           -5.6619     3.1594    -0.5485 C.3     
  11 C11           -6.5029     2.8598    -1.7933 C.3     
  12 C12           -5.7393     3.3107    -3.0406 C.3     
  13 C13           -4.4261     2.5320    -3.1461 C.3     
  14 C14           -3.5591     2.8323    -1.9139 C.3     
  15 C15           -6.5781     3.0486    -4.2649 C.ar    
  16 C16           -6.2455     3.6453    -5.4681 C.ar    
  17 C17           -7.6739     2.2080    -4.1818 C.ar    
  18 C18           -8.4458     1.9633    -5.2986 C.ar    
  19 C19           -8.1190     2.5663    -6.5149 C.ar    
  20 C20           -7.0086     3.4095    -6.5928 C.ar    
  21 C21           -8.9157     2.3170    -7.6783 C.1     
  22 N22           -9.5478     2.1191    -8.6013 N.1     
  23 C23            1.0015     2.4542    -0.5368 C.2     
  24 N24            2.2791     2.1458    -0.5229 N.2     
  25 N25            2.9787     3.1824    -0.8200 N.2     
  26 C26            2.1951     4.2041    -1.0389 C.2     
  27 N27            0.9134     3.7781    -0.8723 N.pl3   
  28 C28            2.6302     5.5977    -1.4125 C.3     
  29 O29            1.4795     6.4312    -1.5650 O.3     
  30 C30            1.5024    -0.3712    -0.1996 C.3     
  31 C31            2.0647    -0.9071     1.1276 C.3     
  32 C32            2.6751    -2.0597     0.3129 C.3     
  33 C33            1.5590    -1.8182    -0.7171 C.3     
  34 F34           -5.4637     4.6792    -2.9490 F       
  35 C35           -3.3785    -1.1253     0.5777 C.3     
  36 H36           -0.7669    -1.7353     0.3078 H       
  37 H37           -1.6042     3.1027    -0.2648 H       
  38 H38           -6.1561     2.7515     0.3333 H       
  39 H39           -5.5439     4.2373    -0.4379 H       
  40 H40           -6.6964     1.7887    -1.8526 H       
  41 H41           -7.4488     3.3979    -1.7315 H       
  42 H42           -4.6391     1.4640    -3.1926 H       
  43 H43           -3.8937     2.8369    -4.0471 H       
  44 H44           -3.2706     3.8834    -1.9175 H       
  45 H45           -2.6670     2.2063    -1.9335 H       
  46 H46           -5.3866     4.2975    -5.5268 H       
  47 H47           -7.9253     1.7420    -3.2405 H       
  48 H48           -9.3006     1.3067    -5.2325 H       
  49 H49           -6.7505     3.8793    -7.5303 H       
  50 H50            0.1047     4.3054    -0.9664 H       
  51 H51            3.2697     6.0014    -0.6275 H       
  52 H52            3.1831     5.5663    -2.3513 H       
  53 H53            1.6848     7.3449    -1.8059 H       
  54 H54            2.1800     0.3065    -0.7189 H       
  55 H55            2.8080    -0.2527     1.5829 H       
  56 H56            1.2953    -1.2283     1.8298 H       
  57 H57            3.6739    -1.8447    -0.0670 H       
  58 H58            2.6092    -3.0279     0.8091 H       
  59 H59            0.6514    -2.3885    -0.5193 H       
  60 H60            1.8941    -1.8992    -1.7512 H       
  61 H61           -3.4719    -1.2614     1.6551 H       
  62 H62           -4.3034    -0.7047     0.1831 H       
  63 H63           -3.1866    -2.0885     0.1050 H       
@<TRIPOS>BOND
   1    1    2 ar
   2    1   23 1
   3    1    6 ar
   4    2    3 ar
   5    2   30 1
   6    3    4 ar
   7    3   36 1
   8    4    5 ar
   9    4   35 1
  10    5    6 ar
  11    5    7 1
  12    6   37 1
  13    7    8 2
  14    7    9 am
  15    9   10 1
  16    9   14 1
  17   10   11 1
  18   10   38 1
  19   10   39 1
  20   11   12 1
  21   11   40 1
  22   11   41 1
  23   12   13 1
  24   12   15 1
  25   12   34 1
  26   13   14 1
  27   13   42 1
  28   13   43 1
  29   14   44 1
  30   14   45 1
  31   15   16 ar
  32   15   17 ar
  33   16   20 ar
  34   16   46 1
  35   17   18 ar
  36   17   47 1
  37   18   19 ar
  38   18   48 1
  39   19   20 ar
  40   19   21 1
  41   20   49 1
  42   21   22 3
  43   23   24 2
  44   23   27 1
  45   24   25 1
  46   25   26 2
  47   26   27 1
  48   26   28 1
  49   27   50 1
  50   28   29 1
  51   28   51 1
  52   28   52 1
  53   29   53 1
  54   30   31 1
  55   30   33 1
  56   30   54 1
  57   31   32 1
  58   31   55 1
  59   31   56 1
  60   32   33 1
  61   32   57 1
  62   32   58 1
  63   33   59 1
  64   33   60 1
  65   35   61 1
  66   35   62 1
  67   35   63 1

#	End of record

