#	Name: ASD01811252
#	Creating user name:	WinNT
#	Creation time:	15. 06. 2019 19:26

#	Modifying user name:	WinNT
#	Modification time:	15. 06. 2019 19:26

#	Program:	/corina/corina34_cracker 3.40 0067  02.08.2006

@<TRIPOS>MOLECULE
ASD01811252
  59   64    0    0    0
SMALL
NO_CHARGES


@<TRIPOS>ATOM
   1 C1            -0.3081     1.2332    -0.2449 C.ar    
   2 C2            -0.4712    -0.1276    -0.4896 C.ar    
   3 N3            -1.8241    -0.4284    -0.6615 N.am    
   4 C4            -2.6058     0.6624    -0.5461 C.2     
   5 C5            -1.6903     1.8219    -0.2616 C.3     
   6 C6            -2.0384     2.5002     1.0659 C.3     
   7 N7            -2.3153     3.9226     0.7574 N.3     
   8 C8            -2.7429     3.9537    -0.6656 C.3     
   9 C9            -1.8164     2.9084    -1.3409 C.3     
  10 C10           -3.3658     4.4568     1.6345 C.3     
  11 C11           -2.9343     4.5849     3.1050 C.3     
  12 C12           -3.6973     5.9198     3.1307 C.3     
  13 C13           -3.4658     5.9912     1.6121 C.3     
  14 C14            0.9460     1.7641    -0.0440 C.ar    
  15 C15            2.0600     0.9437    -0.0835 C.ar    
  16 C16            1.9099    -0.4093    -0.3249 C.ar    
  17 C17            0.6548    -0.9459    -0.5266 C.ar    
  18 C18           -2.3339    -1.7742    -0.9359 C.3     
  19 O19           -3.8138     0.7016    -0.6480 O.2     
  20 C20           -2.6338    -2.4728     0.3653 C.ar    
  21 C21           -3.8130    -2.2001     1.0397 C.ar    
  22 C22           -4.0916    -2.8389     2.2336 C.ar    
  23 C23           -3.1844    -3.7571     2.7569 C.ar    
  24 C24           -2.0008    -4.0267     2.0739 C.ar    
  25 C25           -1.7339    -3.3879     0.8794 C.ar    
  26 C26           -3.4779    -4.4460     4.0390 C.2     
  27 F27           -4.6912    -1.3088     0.5303 F       
  28 C28           -2.6824    -5.3627     4.6621 C.2     
  29 N29           -3.3083    -5.7434     5.7940 N.pl3   
  30 N30           -4.5209    -5.0487     5.8784 N.2     
  31 C31           -4.6253    -4.2675     4.8361 C.2     
  32 C32           -2.8061    -6.7162     6.7676 C.3     
  33 H33           -2.9219     2.0344     1.5025 H       
  34 H34           -1.1974     2.4249     1.7552 H       
  35 H35           -3.7880     3.6584    -0.7594 H       
  36 H36           -2.5822     4.9431    -1.0937 H       
  37 H37           -0.8429     3.3436    -1.5669 H       
  38 H38           -2.2797     2.5062    -2.2419 H       
  39 H39           -4.3236     3.9535     1.5028 H       
  40 H40           -3.3653     3.8230     3.7545 H       
  41 H41           -1.8578     4.6946     3.2362 H       
  42 H42           -4.7464     5.8177     3.4081 H       
  43 H43           -3.1855     6.7046     3.6877 H       
  44 H44           -2.5346     6.4854     1.3351 H       
  45 H45           -4.3259     6.3646     1.0564 H       
  46 H46            1.0607     2.8213     0.1443 H       
  47 H47            3.0443     1.3596     0.0735 H       
  48 H48            2.7792    -1.0494    -0.3558 H       
  49 H49            0.5456    -2.0038    -0.7146 H       
  50 H50           -3.2458    -1.7034    -1.5288 H       
  51 H51           -1.5844    -2.3410    -1.4883 H       
  52 H52           -5.0106    -2.6262     2.7595 H       
  53 H53           -1.2946    -4.7380     2.4761 H       
  54 H54           -0.8163    -3.5972     0.3497 H       
  55 H55           -1.7250    -5.7191     4.3120 H       
  56 H56           -5.4509    -3.6058     4.6198 H       
  57 H57           -2.2125    -6.2012     7.5228 H       
  58 H58           -3.6469    -7.2182     7.2464 H       
  59 H59           -2.1854    -7.4531     6.2578 H       
@<TRIPOS>BOND
   1    1    2 ar
   2    1   14 ar
   3    1    5 1
   4    2    3 1
   5    2   17 ar
   6    3    4 am
   7    3   18 1
   8    4    5 1
   9    4   19 2
  10    5    6 1
  11    5    9 1
  12    6    7 1
  13    6   33 1
  14    6   34 1
  15    7    8 1
  16    7   10 1
  17    8    9 1
  18    8   35 1
  19    8   36 1
  20    9   37 1
  21    9   38 1
  22   10   11 1
  23   10   13 1
  24   10   39 1
  25   11   12 1
  26   11   40 1
  27   11   41 1
  28   12   13 1
  29   12   42 1
  30   12   43 1
  31   13   44 1
  32   13   45 1
  33   14   15 ar
  34   14   46 1
  35   15   16 ar
  36   15   47 1
  37   16   17 ar
  38   16   48 1
  39   17   49 1
  40   18   20 1
  41   18   50 1
  42   18   51 1
  43   20   21 ar
  44   20   25 ar
  45   21   22 ar
  46   21   27 1
  47   22   23 ar
  48   22   52 1
  49   23   24 ar
  50   23   26 1
  51   24   25 ar
  52   24   53 1
  53   25   54 1
  54   26   28 2
  55   26   31 1
  56   28   29 1
  57   28   55 1
  58   29   30 1
  59   29   32 1
  60   30   31 2
  61   31   56 1
  62   32   57 1
  63   32   58 1
  64   32   59 1

#	End of record

