#	Name: ASD01200170
#	Creating user name:	WinNT
#	Creation time:	15. 06. 2019 19:08

#	Modifying user name:	WinNT
#	Modification time:	15. 06. 2019 19:08

#	Program:	/corina/corina34_cracker 3.40 0067  02.08.2006

@<TRIPOS>MOLECULE
ASD01200170
  51   53    0    0    0
SMALL
NO_CHARGES


@<TRIPOS>ATOM
   1 C1             0.9789     1.3638    -1.7314 C.2     
   2 C2             0.8674    -0.1358    -1.6319 C.3     
   3 O3             1.5852     1.9843    -0.8839 O.2     
   4 N4             0.4098     2.0147    -2.7652 N.am    
   5 S5             1.7366    -0.7096    -0.1467 S.3     
   6 N6             2.5854    -3.2585    -0.4084 N.am    
   7 C7             1.3700    -2.4859    -0.1199 C.3     
   8 C8             0.9323    -2.9070     1.2637 C.2     
   9 C9             1.8085    -3.8107     1.6906 C.2     
  10 C10            2.8322    -4.0335     0.6644 C.2     
  11 O11            3.7665    -4.8053     0.7672 O.2     
  12 C12            1.7573    -4.5030     3.0282 C.3     
  13 C13           -0.2695    -2.3982     2.0172 C.3     
  14 C14            3.3788    -3.2011    -1.6386 C.3     
  15 C15            4.4434    -2.1434    -1.5008 C.ar    
  16 C16            5.6844    -2.4759    -0.9899 C.ar    
  17 C17            6.6621    -1.5082    -0.8626 C.ar    
  18 C18            6.3978    -0.2019    -1.2478 C.ar    
  19 C19            5.1518     0.1291    -1.7602 C.ar    
  20 C20            4.1794    -0.8435    -1.8907 C.ar    
  21 O21            7.3577     0.7519    -1.1232 O.3     
  22 C22            7.0153     2.0753    -1.5397 C.3     
  23 C23            0.4225     3.4087    -2.8035 C.ar    
  24 C24           -0.0635     4.0710    -3.9251 C.ar    
  25 C25           -0.0452     5.4543    -3.9507 C.ar    
  26 C26            0.4611     6.1307    -2.8478 C.ar    
  27 C27            0.9276     5.4073    -1.7668 C.ar    
  28 N28            0.8921     4.0884    -1.7697 N.ar    
  29 Cl29           0.5076     7.8659    -2.8282 Cl      
  30 H30           -0.1835    -0.4186    -1.5699 H       
  31 H31            1.3152    -0.5928    -2.5143 H       
  32 H32           -0.0088     1.5136    -3.4826 H       
  33 H33            0.5938    -2.7202    -0.8485 H       
  34 H34            1.1722    -5.4185     2.9413 H       
  35 H35            2.7697    -4.7479     3.3495 H       
  36 H36            1.2931    -3.8433     3.7612 H       
  37 H37           -1.1093    -3.0754     1.8616 H       
  38 H38           -0.0365    -2.3466     3.0807 H       
  39 H39           -0.5321    -1.4045     1.6541 H       
  40 H40            3.8486    -4.1689    -1.8135 H       
  41 H41            2.7292    -2.9554    -2.4787 H       
  42 H42            5.8896    -3.4929    -0.6898 H       
  43 H43            7.6312    -1.7683    -0.4631 H       
  44 H44            4.9436     1.1453    -2.0607 H       
  45 H45            3.2107    -0.5873    -2.2940 H       
  46 H46            6.7474     2.0657    -2.5963 H       
  47 H47            6.1689     2.4332    -0.9535 H       
  48 H48            7.8684     2.7364    -1.3872 H       
  49 H49           -0.4497     3.5133    -4.7654 H       
  50 H50           -0.4158     5.9958    -4.8085 H       
  51 H51            1.3226     5.9282    -0.9071 H       
@<TRIPOS>BOND
   1    1    2 1
   2    1    3 2
   3    1    4 am
   4    2    5 1
   5    2   30 1
   6    2   31 1
   7    4   23 1
   8    4   32 1
   9    5    7 1
  10    6    7 1
  11    6   10 am
  12    6   14 1
  13    7    8 1
  14    7   33 1
  15    8    9 2
  16    8   13 1
  17    9   10 1
  18    9   12 1
  19   10   11 2
  20   12   34 1
  21   12   35 1
  22   12   36 1
  23   13   37 1
  24   13   38 1
  25   13   39 1
  26   14   15 1
  27   14   40 1
  28   14   41 1
  29   15   16 ar
  30   15   20 ar
  31   16   17 ar
  32   16   42 1
  33   17   18 ar
  34   17   43 1
  35   18   19 ar
  36   18   21 1
  37   19   20 ar
  38   19   44 1
  39   20   45 1
  40   21   22 1
  41   22   46 1
  42   22   47 1
  43   22   48 1
  44   23   24 ar
  45   23   28 ar
  46   24   25 ar
  47   24   49 1
  48   25   26 ar
  49   25   50 1
  50   26   27 ar
  51   26   29 1
  52   27   28 ar
  53   27   51 1

#	End of record

