#	Name: ASD01890465
#	Creating user name:	WinNT
#	Creation time:	15. 06. 2019 19:51

#	Modifying user name:	WinNT
#	Modification time:	15. 06. 2019 19:51

#	Program:	/corina/corina34_cracker 3.40 0067  02.08.2006

@<TRIPOS>MOLECULE
ASD01890465
  47   50    0    0    0
SMALL
NO_CHARGES


@<TRIPOS>ATOM
   1 C1            -0.0177     1.4577     0.0101 C.2     
   2 C2             0.0021    -0.0041     0.0020 C.2     
   3 C3             1.1801    -0.6630    -0.0128 C.2     
   4 C4             1.2006    -2.1699    -0.0211 C.3     
   5 C5             1.3195    -2.6704    -1.4620 C.3     
   6 O6             1.0272     2.0801     0.0034 O.2     
   7 O7            -1.1952     2.1163     0.0192 O.3     
   8 C8             0.1680    -4.8631    -1.5660 C.ar    
   9 C9             1.3399    -4.1772    -1.4703 C.ar    
  10 C10            2.5581    -4.8475    -1.3803 C.ar    
  11 C11            2.6117    -6.2077    -1.3850 C.ar    
  12 C12            1.4227    -6.9499    -1.4821 C.ar    
  13 C13            1.4381    -8.3553    -1.4907 C.ar    
  14 C14            0.2664    -9.0409    -1.5864 C.ar    
  15 C15           -0.9522    -8.3704    -1.6767 C.ar    
  16 C16           -1.0059    -7.0105    -1.6719 C.ar    
  17 C17            0.1834    -6.2680    -1.5736 C.ar    
  18 C18            2.7860     0.8742     1.0724 C.ar    
  19 C19            2.4437     0.0896    -0.0208 C.ar    
  20 C20            3.2988     0.0093    -1.1373 C.ar    
  21 C21            4.4697     0.6939    -1.1667 C.ar    
  22 C22            4.8444     1.4972    -0.0736 C.ar    
  23 C23            6.0525     2.2135    -0.0826 C.ar    
  24 C24            6.3896     2.9826     0.9893 C.ar    
  25 C25            5.5532     3.0720     2.1005 C.ar    
  26 C26            4.3750     2.3924     2.1462 C.ar    
  27 C27            3.9927     1.5877     1.0572 C.ar    
  28 H28           -0.9258    -0.5567     0.0079 H       
  29 H29            2.0528    -2.5249     0.5584 H       
  30 H30            0.2784    -2.5482     0.4201 H       
  31 H31            0.4672    -2.3154    -2.0414 H       
  32 H32            2.2416    -2.2921    -1.9031 H       
  33 H33           -1.1072     3.0792     0.0240 H       
  34 H34           -0.7691    -4.3302    -1.6310 H       
  35 H35            3.4736    -4.2794    -1.3059 H       
  36 H36            3.5633    -6.7137    -1.3150 H       
  37 H37            2.3748    -8.8883    -1.4220 H       
  38 H38            0.2810   -10.1207    -1.5927 H       
  39 H39           -1.8676    -8.9385    -1.7520 H       
  40 H40           -1.9574    -6.5046    -1.7433 H       
  41 H41            2.1265     0.9375     1.9253 H       
  42 H42            3.0190    -0.6051    -1.9802 H       
  43 H43            5.1150     0.6221    -2.0297 H       
  44 H44            6.7116     2.1543    -0.9361 H       
  45 H45            7.3196     3.5315     0.9784 H       
  46 H46            5.8444     3.6893     2.9375 H       
  47 H47            3.7365     2.4708     3.0137 H       
@<TRIPOS>BOND
   1    1    2 1
   2    1    6 2
   3    1    7 1
   4    2    3 2
   5    2   28 1
   6    3    4 1
   7    3   19 1
   8    4    5 1
   9    4   29 1
  10    4   30 1
  11    5    9 1
  12    5   31 1
  13    5   32 1
  14    7   33 1
  15    8    9 ar
  16    8   17 ar
  17    8   34 1
  18    9   10 ar
  19   10   11 ar
  20   10   35 1
  21   11   12 ar
  22   11   36 1
  23   12   13 ar
  24   12   17 ar
  25   13   14 ar
  26   13   37 1
  27   14   15 ar
  28   14   38 1
  29   15   16 ar
  30   15   39 1
  31   16   17 ar
  32   16   40 1
  33   18   19 ar
  34   18   27 ar
  35   18   41 1
  36   19   20 ar
  37   20   21 ar
  38   20   42 1
  39   21   22 ar
  40   21   43 1
  41   22   23 ar
  42   22   27 ar
  43   23   24 ar
  44   23   44 1
  45   24   25 ar
  46   24   45 1
  47   25   26 ar
  48   25   46 1
  49   26   27 ar
  50   26   47 1

#	End of record

