#	Name: ASD03540449
#	Creating user name:	WinNT
#	Creation time:	15. 06. 2019 20:43

#	Modifying user name:	WinNT
#	Modification time:	15. 06. 2019 20:43

#	Program:	/corina/corina34_cracker 3.40 0067  02.08.2006

@<TRIPOS>MOLECULE
ASD03540449
  63   66    0    0    0
SMALL
NO_CHARGES


@<TRIPOS>ATOM
   1 N1            -1.6648     0.0847     0.9501 N.am    
   2 C2            -0.9504    -0.9973     0.5974 C.2     
   3 N3             0.3712    -0.9545     0.3670 N.am    
   4 C4             1.0645     0.1994     0.4799 C.2     
   5 C5             0.3306     1.4192     0.8641 C.ar    
   6 C6             0.9721     2.6437     1.0013 C.ar    
   7 C7             0.2289     3.7652     1.3674 C.ar    
   8 C8            -1.1485     3.6515     1.5927 C.ar    
   9 C9            -1.7791     2.4468     1.4581 C.ar    
  10 C10           -1.0549     1.3187     1.0941 C.ar    
  11 C11            0.8951     5.0741     1.5181 C.2     
  12 O12            2.0910     5.1736     1.3231 O.2     
  13 N13            0.1775     6.1587     1.8720 N.am    
  14 C14            0.8385     7.4575     2.0215 C.3     
  15 C15           -0.1785     8.4959     2.4198 C.ar    
  16 C16           -0.4360     8.7323     3.7575 C.ar    
  17 C17           -1.3678     9.6836     4.1252 C.ar    
  18 C18           -2.0455    10.4020     3.1508 C.ar    
  19 C19           -1.7853    10.1628     1.8092 C.ar    
  20 C20           -0.8485     9.2144     1.4469 C.ar    
  21 O21           -2.9629    11.3380     3.5099 O.3     
  22 C22           -3.6221    12.0391     2.4535 C.3     
  23 O23            2.2618     0.2311     0.2706 O.2     
  24 O24           -1.5262    -2.0618     0.4822 O.2     
  25 C25            1.0749    -2.1818    -0.0133 C.3     
  26 C26            0.0768    -3.2070    -0.4866 C.ar    
  27 C27           -0.0245    -4.4237     0.1617 C.ar    
  28 C28           -0.9400    -5.3640    -0.2725 C.ar    
  29 C29           -1.7544    -5.0876    -1.3547 C.ar    
  30 C30           -1.6537    -3.8705    -2.0024 C.ar    
  31 C31           -0.7412    -2.9285    -1.5656 C.ar    
  32 C32           -2.7517    -6.1131    -1.8286 C.3     
  33 S33            2.2471    -1.8176    -1.3489 S.o2    
  34 O34            3.3852    -1.1349    -0.8410 O.2     
  35 O35            2.3893    -2.9408    -2.2076 O.2     
  36 N36            1.4745    -0.6869    -2.2799 N.am    
  37 C37           -3.1063    -0.0420     1.1790 C.3     
  38 H38            2.0347     2.7260     0.8268 H       
  39 H39           -1.7179     4.5244     1.8760 H       
  40 H40           -2.8418     2.3716     1.6352 H       
  41 H41           -0.7767     6.0793     2.0276 H       
  42 H42            1.6069     7.3876     2.7914 H       
  43 H43            1.2974     7.7428     1.0749 H       
  44 H44            0.0916     8.1726     4.5156 H       
  45 H45           -1.5688     9.8677     5.1702 H       
  46 H46           -2.3116    10.7207     1.0489 H       
  47 H47           -0.6422     9.0313     0.4027 H       
  48 H48           -4.3268    12.7549     2.8768 H       
  49 H49           -2.8830    12.5689     1.8524 H       
  50 H50           -4.1592    11.3284     1.8255 H       
  51 H51            1.6159    -2.5724     0.8486 H       
  52 H52            0.6117    -4.6397     1.0072 H       
  53 H53           -1.0187    -6.3149     0.2336 H       
  54 H54           -2.2897    -3.6547    -2.8482 H       
  55 H55           -0.6651    -1.9762    -2.0693 H       
  56 H56           -3.6990    -5.9654    -1.3101 H       
  57 H57           -2.9042    -6.0026    -2.9022 H       
  58 H58           -2.3734    -7.1131    -1.6164 H       
  59 H59            0.6176    -0.3301    -1.9982 H       
  60 H60            1.8787    -0.3815    -3.1071 H       
  61 H61           -3.4104    -1.0760     1.0167 H       
  62 H62           -3.3384     0.2484     2.2036 H       
  63 H63           -3.6425     0.6073     0.4870 H       
@<TRIPOS>BOND
   1    1    2 am
   2    1   10 1
   3    1   37 1
   4    2    3 am
   5    2   24 2
   6    3    4 am
   7    3   25 1
   8    4    5 1
   9    4   23 2
  10    5    6 ar
  11    5   10 ar
  12    6    7 ar
  13    6   38 1
  14    7    8 ar
  15    7   11 1
  16    8    9 ar
  17    8   39 1
  18    9   10 ar
  19    9   40 1
  20   11   12 2
  21   11   13 am
  22   13   14 1
  23   13   41 1
  24   14   15 1
  25   14   42 1
  26   14   43 1
  27   15   16 ar
  28   15   20 ar
  29   16   17 ar
  30   16   44 1
  31   17   18 ar
  32   17   45 1
  33   18   19 ar
  34   18   21 1
  35   19   20 ar
  36   19   46 1
  37   20   47 1
  38   21   22 1
  39   22   48 1
  40   22   49 1
  41   22   50 1
  42   25   26 1
  43   25   33 1
  44   25   51 1
  45   26   27 ar
  46   26   31 ar
  47   27   28 ar
  48   27   52 1
  49   28   29 ar
  50   28   53 1
  51   29   30 ar
  52   29   32 1
  53   30   31 ar
  54   30   54 1
  55   31   55 1
  56   32   56 1
  57   32   57 1
  58   32   58 1
  59   33   34 2
  60   33   35 2
  61   33   36 am
  62   36   59 1
  63   36   60 1
  64   37   61 1
  65   37   62 1
  66   37   63 1

#	End of record

