#	Name: ASD07930468
#	Creating user name:	WinNT
#	Creation time:	15. 06. 2019 21:12

#	Modifying user name:	WinNT
#	Modification time:	15. 06. 2019 21:12

#	Program:	/corina/corina34_cracker 3.40 0067  02.08.2006

@<TRIPOS>MOLECULE
ASD07930468
  52   55    0    0    0
SMALL
NO_CHARGES


@<TRIPOS>ATOM
   1 C1            -0.0222     1.5415    -0.0108 C.3     
   2 Cl2            2.7611    11.2265     9.0068 Cl      
   3 N3             2.1315     1.2385     2.0338 N.2     
   4 N4             2.7634     3.3787     1.3398 N.pl3   
   5 C5             3.6748     3.8760     0.3039 C.3     
   6 C6             2.8966     4.0681    -1.0051 C.3     
   7 S7             2.1113     2.4844    -1.4404 S.o2    
   8 N8             1.3518     2.0495    -0.0224 N.am    
   9 C9             2.0850     2.1927     1.1470 C.2     
  10 C10            4.8007     2.8634     0.0850 C.3     
  11 C11            4.2603     5.1945     0.7394 C.ar    
  12 C12            3.8295     5.7879     1.9095 C.ar    
  13 C13            4.3694     7.0032     2.3104 C.ar    
  14 C14            5.3416     7.6188     1.5333 C.ar    
  15 C15            5.7697     7.0218     0.3636 C.ar    
  16 C16            5.2342     5.8076    -0.0313 C.ar    
  17 N17            3.9339     7.6064     3.4956 N.am    
  18 C18            4.8016     8.3046     4.2547 C.2     
  19 O19            5.9811     8.3295     3.9626 O.2     
  20 O20            1.0522     2.6843    -2.3664 O.2     
  21 O21            3.0906     1.4753    -1.6454 O.2     
  22 F22            5.6546     5.2251    -1.1755 F       
  23 C23            4.3178     9.0413     5.4445 C.ar    
  24 N24            3.0283     9.0101     5.7583 N.ar    
  25 C25            2.5574     9.6501     6.8060 C.ar    
  26 C26            3.3981    10.3866     7.6275 C.ar    
  27 C27            4.7535    10.4456     7.3354 C.ar    
  28 C28            5.2212     9.7566     6.2284 C.ar    
  29 C29           -0.0005     0.0117    -0.0282 C.3     
  30 C30           -1.3408    -0.7153     0.0988 C.3     
  31 C31           -0.6086    -0.6897    -1.2444 C.3     
  32 H32           -0.5300     1.8875     0.8895 H       
  33 H33           -0.5523     1.9073    -0.8902 H       
  34 H34            2.6491     1.3558     2.8457 H       
  35 H35            2.6408     3.8807     2.1607 H       
  36 H36            2.1315     4.8324    -0.8690 H       
  37 H37            3.5806     4.3693    -1.7985 H       
  38 H38            4.3761     1.9108    -0.2319 H       
  39 H39            5.4777     3.2335    -0.6849 H       
  40 H40            5.3505     2.7244     1.0159 H       
  41 H41            3.0730     5.3075     2.5122 H       
  42 H42            5.7625     8.5640     1.8431 H       
  43 H43            6.5256     7.5005    -0.2413 H       
  44 H44            3.0076     7.5221     3.7708 H       
  45 H45            1.5019     9.6019     7.0297 H       
  46 H46            5.4289    11.0121     7.9593 H       
  47 H47            6.2699     9.7802     5.9717 H       
  48 H48            0.8693    -0.4514     0.4376 H       
  49 H49           -1.3525    -1.6569     0.6478 H       
  50 H50           -2.2380    -0.1038     0.1947 H       
  51 H51           -1.0241    -0.0613    -2.0322 H       
  52 H52           -0.1387    -1.6145    -1.5791 H       
@<TRIPOS>BOND
   1    1   29 1
   2    1    8 1
   3    1   32 1
   4    1   33 1
   5    2   26 1
   6    3    9 2
   7    3   34 1
   8    4    5 1
   9    4    9 1
  10    4   35 1
  11    5    6 1
  12    5   10 1
  13    5   11 1
  14    6    7 1
  15    6   36 1
  16    6   37 1
  17    7    8 am
  18    7   20 2
  19    7   21 2
  20    8    9 1
  21   10   38 1
  22   10   39 1
  23   10   40 1
  24   11   12 ar
  25   11   16 ar
  26   12   13 ar
  27   12   41 1
  28   13   14 ar
  29   13   17 1
  30   14   15 ar
  31   14   42 1
  32   15   16 ar
  33   15   43 1
  34   16   22 1
  35   17   18 am
  36   17   44 1
  37   18   19 2
  38   18   23 1
  39   23   24 ar
  40   23   28 ar
  41   24   25 ar
  42   25   26 ar
  43   25   45 1
  44   26   27 ar
  45   27   28 ar
  46   27   46 1
  47   28   47 1
  48   29   30 1
  49   29   31 1
  50   29   48 1
  51   30   31 1
  52   30   49 1
  53   30   50 1
  54   31   51 1
  55   31   52 1

#	End of record

