#	Name: ASD03731820
#	Creating user name:	WinNT
#	Creation time:	15. 06. 2019 20:46

#	Modifying user name:	WinNT
#	Modification time:	15. 06. 2019 20:46

#	Program:	/corina/corina34_cracker 3.40 0067  02.08.2006

@<TRIPOS>MOLECULE
ASD03731820
  40   42    0    0    0
SMALL
NO_CHARGES


@<TRIPOS>ATOM
   1 C1             0.1230     1.4716    -0.0152 C.2     
   2 C2             0.1059    -0.0047    -0.0177 C.ar    
   3 C3             1.2943    -0.7151    -0.1771 C.ar    
   4 C4             1.2724    -2.1075    -0.1787 C.ar    
   5 C5             0.0528    -2.7855    -0.0196 C.ar    
   6 C6            -1.1253    -2.0673     0.1385 C.ar    
   7 C7            -1.1026    -0.6905     0.1457 C.ar    
   8 O8             1.1738     2.0676    -0.1522 O.2     
   9 N9            -1.0270     2.1585     0.1334 N.am    
  10 O10            0.0255    -4.1404    -0.0209 O.3     
  11 C11            0.2479    -4.7835     1.1541 C.ar    
  12 C12            0.5600    -4.0686     2.2887 C.ar    
  13 C13            0.7900    -4.7175     3.4985 C.ar    
  14 C14            0.7132    -6.0735     3.5942 C.ar    
  15 C15            0.3974    -6.8394     2.4594 C.ar    
  16 C16            0.3115    -8.2409     2.5275 C.ar    
  17 C17            0.0038    -8.9520     1.4087 C.ar    
  18 C18           -0.2284    -8.3116     0.1929 C.ar    
  19 C19           -0.1534    -6.9562     0.0897 C.ar    
  20 C20            0.1556    -6.1887     1.2242 C.ar    
  21 S21           -1.0078     3.8144     0.1363 S.o2    
  22 O22           -2.3663     4.1803     0.3364 O.2     
  23 O23           -0.0101     4.1517     1.0902 O.2     
  24 C24           -0.4673     4.2637    -1.5360 C.3     
  25 C25            2.4888    -2.8452    -0.3424 C.1     
  26 N26            3.4538    -3.4304    -0.4723 N.1     
  27 H27            2.2288    -0.1876    -0.2993 H       
  28 H28           -2.0622    -2.5906     0.2603 H       
  29 H29           -2.0217    -0.1379     0.2735 H       
  30 H30           -1.8659     1.6830     0.2388 H       
  31 H31            0.6275    -2.9919     2.2394 H       
  32 H32            1.0336    -4.1360     4.3754 H       
  33 H33            0.8951    -6.5599     4.5412 H       
  34 H34            0.4892    -8.7507     3.4629 H       
  35 H35           -0.0612   -10.0286     1.4637 H       
  36 H36           -0.4709    -8.8991    -0.6802 H       
  37 H37           -0.3350    -6.4733    -0.8592 H       
  38 H38           -1.1734     3.8662    -2.2652 H       
  39 H39           -0.4257     5.3492    -1.6251 H       
  40 H40            0.5218     3.8456    -1.7228 H       
@<TRIPOS>BOND
   1    1    2 1
   2    1    8 2
   3    1    9 am
   4    2    3 ar
   5    2    7 ar
   6    3    4 ar
   7    3   27 1
   8    4    5 ar
   9    4   25 1
  10    5    6 ar
  11    5   10 1
  12    6    7 ar
  13    6   28 1
  14    7   29 1
  15    9   21 am
  16    9   30 1
  17   10   11 1
  18   11   12 ar
  19   11   20 ar
  20   12   13 ar
  21   12   31 1
  22   13   14 ar
  23   13   32 1
  24   14   15 ar
  25   14   33 1
  26   15   16 ar
  27   15   20 ar
  28   16   17 ar
  29   16   34 1
  30   17   18 ar
  31   17   35 1
  32   18   19 ar
  33   18   36 1
  34   19   20 ar
  35   19   37 1
  36   21   22 2
  37   21   23 2
  38   21   24 1
  39   24   38 1
  40   24   39 1
  41   24   40 1
  42   25   26 3

#	End of record

