#	Name: ASD01410088
#	Creating user name:	WinNT
#	Creation time:	15. 06. 2019 19:16

#	Modifying user name:	WinNT
#	Modification time:	15. 06. 2019 19:16

#	Program:	/corina/corina34_cracker 3.40 0067  02.08.2006

@<TRIPOS>MOLECULE
ASD01410088
  36   39    0    0    0
SMALL
NO_CHARGES


@<TRIPOS>ATOM
   1 C1           -10.0371    -3.3932     0.2679 C.ar    
   2 C2            -8.9722    -4.2827     0.1962 C.ar    
   3 C3            -7.6762    -3.8040     0.1227 C.ar    
   4 C4            -7.4475    -2.4220     0.1211 C.ar    
   5 C5            -8.5242    -1.5227     0.1935 C.ar    
   6 C6            -9.8170    -2.0236     0.2608 C.ar    
   7 C7            -6.2259    -1.6044     0.0558 C.2     
   8 C8            -6.7080    -0.2157     0.0972 C.2     
   9 O9            -8.0588    -0.2543     0.1773 O.3     
  10 O10           -5.0720    -1.9916    -0.0165 O.2     
  11 C11           -5.9380     0.9024     0.0616 C.2     
  12 C12           -6.5675     2.2235    -0.0364 C.ar    
  13 O13          -11.3063    -3.8691     0.3398 O.3     
  14 O14           -6.6327    -4.6683     0.0530 O.3     
  15 C15           -7.9514     2.3285    -0.2344 C.ar    
  16 C16           -8.5356     3.5583    -0.3249 C.ar    
  17 C17           -7.7542     4.7141    -0.2205 C.ar    
  18 C18           -6.3729     4.6110    -0.0233 C.ar    
  19 C19           -5.7867     3.3827     0.0738 C.ar    
  20 C20           -8.3872     6.0427    -0.3190 C.2     
  21 C21           -7.7385     7.2240    -0.2337 C.2     
  22 S22          -10.1031     6.3341    -0.5733 S.3     
  23 C23           -9.8441     8.0732    -0.5423 C.2     
  24 C24           -8.5456     8.3340    -0.3561 C.2     
  25 H25           -9.1559    -5.3470     0.1983 H       
  26 H26          -10.6546    -1.3442     0.3169 H       
  27 H27           -4.8621     0.8187     0.1053 H       
  28 H28          -11.6211    -4.0147     1.2424 H       
  29 H29           -6.3829    -4.9114    -0.8490 H       
  30 H30           -8.5548     1.4364    -0.3158 H       
  31 H31           -9.6017     3.6395    -0.4775 H       
  32 H32           -5.7710     5.5042     0.0564 H       
  33 H33           -4.7205     3.3035     0.2264 H       
  34 H34           -6.6716     7.2932    -0.0812 H       
  35 H35          -10.6169     8.8186    -0.6594 H       
  36 H36           -8.1583     9.3408    -0.3036 H       
@<TRIPOS>BOND
   1    1    2 ar
   2    1   13 1
   3    1    6 ar
   4    2    3 ar
   5    2   25 1
   6    3    4 ar
   7    3   14 1
   8    4    5 ar
   9    4    7 1
  10    5    6 ar
  11    5    9 1
  12    6   26 1
  13    7    8 1
  14    7   10 2
  15    8    9 1
  16    8   11 2
  17   11   12 1
  18   11   27 1
  19   12   15 ar
  20   12   19 ar
  21   13   28 1
  22   14   29 1
  23   15   16 ar
  24   15   30 1
  25   16   17 ar
  26   16   31 1
  27   17   18 ar
  28   17   20 1
  29   18   19 ar
  30   18   32 1
  31   19   33 1
  32   20   21 2
  33   20   22 1
  34   21   24 1
  35   21   34 1
  36   22   23 1
  37   23   24 2
  38   23   35 1
  39   24   36 1

#	End of record

