#	Name: ASD04880384
#	Creating user name:	WinNT
#	Creation time:	15. 06. 2019 20:53

#	Modifying user name:	WinNT
#	Modification time:	15. 06. 2019 20:53

#	Program:	/corina/corina34_cracker 3.40 0067  02.08.2006

@<TRIPOS>MOLECULE
ASD04880384
  51   54    0    0    0
SMALL
NO_CHARGES


@<TRIPOS>ATOM
   1 C1            -0.0125     1.3686    -0.2499 C.ar    
   2 C2             0.0101    -0.0180    -0.2867 C.ar    
   3 C3             1.2256    -0.6990    -0.2763 C.ar    
   4 C4             2.4131     0.0069    -0.2291 C.ar    
   5 C5             2.3907     1.4036    -0.1920 C.ar    
   6 C6             1.1680     2.0798    -0.2027 C.ar    
   7 C7             3.6539     2.1617    -0.1411 C.2     
   8 N8             4.8330     1.6421    -0.1271 N.2     
   9 N9             5.8660     2.5758    -0.0770 N.am    
  10 C10            5.2848     3.9275    -0.0539 C.3     
  11 C11            3.7659     3.6691    -0.1038 C.3     
  12 O12            1.2436    -2.0583    -0.3120 O.3     
  13 C13            7.1824     2.2880    -0.0530 C.2     
  14 C14            7.1224    -1.4458     0.3493 C.ar    
  15 C15            6.6995    -0.1355     0.2588 C.ar    
  16 C16            7.6300     0.8829     0.0462 C.ar    
  17 C17            8.9850     0.5690    -0.0727 C.ar    
  18 C18            9.3962    -0.7467     0.0206 C.ar    
  19 C19            8.4659    -1.7523     0.2313 C.ar    
  20 O20            8.0019     3.1843    -0.1130 O.2     
  21 C21            3.1642     4.2748    -1.3456 C.ar    
  22 C22            2.1244     5.1794    -1.2394 C.ar    
  23 C23            1.5724     5.7349    -2.3785 C.ar    
  24 C24            2.0607     5.3862    -3.6239 C.ar    
  25 C25            3.1011     4.4823    -3.7301 C.ar    
  26 C26            3.6559     3.9300    -2.5907 C.ar    
  27 O27           -1.1565    -0.7141    -0.3327 O.3     
  28 C28            2.5250    -2.6907    -0.2987 C.3     
  29 C29           -2.3661     0.0467    -0.3404 C.3     
  30 F30           10.7068    -1.0536    -0.0942 F       
  31 H31           -0.9568     1.8925    -0.2627 H       
  32 H32            3.3559    -0.5198    -0.2206 H       
  33 H33            1.1474     3.1592    -0.1744 H       
  34 H34            5.5594     4.4475     0.8640 H       
  35 H35            5.6021     4.4965    -0.9278 H       
  36 H36            3.2831     4.0664     0.7891 H       
  37 H37            6.4031    -2.2335     0.5182 H       
  38 H38            5.6498     0.1015     0.3508 H       
  39 H39            9.7098     1.3524    -0.2376 H       
  40 H40            8.7914    -2.7796     0.3029 H       
  41 H41            1.7429     5.4518    -0.2664 H       
  42 H42            0.7596     6.4411    -2.2955 H       
  43 H43            1.6290     5.8197    -4.5139 H       
  44 H44            3.4824     4.2096    -4.7031 H       
  45 H45            4.4713     3.2266    -2.6735 H       
  46 H46            3.0989    -2.3672    -1.1672 H       
  47 H47            3.0570    -2.4145     0.6117 H       
  48 H48            2.3966    -3.7726    -0.3305 H       
  49 H49           -2.4210     0.6509     0.5652 H       
  50 H50           -2.3796     0.6989    -1.2137 H       
  51 H51           -3.2203    -0.6292    -0.3785 H       
@<TRIPOS>BOND
   1    1    2 ar
   2    1    6 ar
   3    1   31 1
   4    2    3 ar
   5    2   27 1
   6    3    4 ar
   7    3   12 1
   8    4    5 ar
   9    4   32 1
  10    5    6 ar
  11    5    7 1
  12    6   33 1
  13    7    8 2
  14    7   11 1
  15    8    9 1
  16    9   10 1
  17    9   13 am
  18   10   11 1
  19   10   34 1
  20   10   35 1
  21   11   21 1
  22   11   36 1
  23   12   28 1
  24   13   16 1
  25   13   20 2
  26   14   15 ar
  27   14   19 ar
  28   14   37 1
  29   15   16 ar
  30   15   38 1
  31   16   17 ar
  32   17   18 ar
  33   17   39 1
  34   18   19 ar
  35   18   30 1
  36   19   40 1
  37   21   22 ar
  38   21   26 ar
  39   22   23 ar
  40   22   41 1
  41   23   24 ar
  42   23   42 1
  43   24   25 ar
  44   24   43 1
  45   25   26 ar
  46   25   44 1
  47   26   45 1
  48   27   29 1
  49   28   46 1
  50   28   47 1
  51   28   48 1
  52   29   49 1
  53   29   50 1
  54   29   51 1

#	End of record

