#	Name: ASD00069499
#	Creating user name:	WinNT
#	Creation time:	15. 06. 2019 18:29

#	Modifying user name:	WinNT
#	Modification time:	15. 06. 2019 18:29

#	Program:	/corina/corina34_cracker 3.40 0067  02.08.2006

@<TRIPOS>MOLECULE
ASD00069499
  39   41    0    0    0
SMALL
NO_CHARGES


@<TRIPOS>ATOM
   1 O1            -0.0174     1.4305     0.0099 O.3     
   2 B2             0.0021    -0.0041     0.0020 Du      
   3 O3             1.0670    -0.3534    -0.8937 O.3     
   4 C4            -0.9361    -0.9782     0.7993 C.2     
   5 C5             2.1089     0.6053    -0.6139 C.3     
   6 C6             1.3736     1.8147    -0.0013 C.3     
   7 C7             1.5763     3.0578    -0.8700 C.3     
   8 C8             1.8670     2.0726     1.4238 C.3     
   9 C9             3.1105     0.0270     0.3877 C.3     
  10 C10            2.8198     1.0122    -1.9062 C.3     
  11 C11           -1.9782    -0.6069     1.6756 C.2     
  12 N12           -2.5221    -1.6974     2.1412 N.2     
  13 N13           -1.8620    -2.8022     1.5917 N.pl3   
  14 C14           -0.8996    -2.3566     0.7695 C.2     
  15 C15           -2.1733    -4.2078     1.8631 C.3     
  16 C16           -2.1288    -4.4542     3.3492 C.2     
  17 C17           -3.1649    -4.3314     4.1803 C.2     
  18 C18           -2.8848    -4.6109     5.5068 C.2     
  19 C19           -1.6214    -4.9607     5.7529 C.2     
  20 S20           -0.7048    -4.9551     4.2518 S.3     
  21 H21            1.1819     2.8713    -1.8689 H       
  22 H22            1.0512     3.9024    -0.4239 H       
  23 H23            2.6403     3.2853    -0.9361 H       
  24 H24            2.9371     2.2793     1.4061 H       
  25 H25            1.3383     2.9292     1.8419 H       
  26 H26            1.6771     1.1929     2.0388 H       
  27 H27            3.5790    -0.8603    -0.0381 H       
  28 H28            3.8754     0.7717     0.6077 H       
  29 H29            2.5906    -0.2424     1.3071 H       
  30 H30            2.0954     1.4363    -2.6014 H       
  31 H31            3.5854     1.7548    -1.6813 H       
  32 H32            3.2852     0.1354    -2.3564 H       
  33 H33           -2.2735     0.4031     1.9185 H       
  34 H34           -0.2168    -2.9655     0.1956 H       
  35 H35           -3.1696    -4.4387     1.4862 H       
  36 H36           -1.4407    -4.8445     1.3672 H       
  37 H37           -4.1477    -4.0360     3.8439 H       
  38 H38           -3.6326    -4.5501     6.2837 H       
  39 H39           -1.2230    -5.2124     6.7247 H       
@<TRIPOS>BOND
   1    1    2 1
   2    1    6 1
   3    2    3 1
   4    2    4 1
   5    3    5 1
   6    4   11 1
   7    4   14 2
   8    5    6 1
   9    5    9 1
  10    5   10 1
  11    6    7 1
  12    6    8 1
  13    7   21 1
  14    7   22 1
  15    7   23 1
  16    8   24 1
  17    8   25 1
  18    8   26 1
  19    9   27 1
  20    9   28 1
  21    9   29 1
  22   10   30 1
  23   10   31 1
  24   10   32 1
  25   11   12 2
  26   11   33 1
  27   12   13 1
  28   13   14 1
  29   13   15 1
  30   14   34 1
  31   15   16 1
  32   15   35 1
  33   15   36 1
  34   16   17 2
  35   16   20 1
  36   17   18 1
  37   17   37 1
  38   18   19 2
  39   18   38 1
  40   19   20 1
  41   19   39 1

#	End of record

