#	Name: ASD02508246
#	Creating user name:	WinNT
#	Creation time:	15. 06. 2019 20:24

#	Modifying user name:	WinNT
#	Modification time:	15. 06. 2019 20:24

#	Program:	/corina/corina34_cracker 3.40 0067  02.08.2006

@<TRIPOS>MOLECULE
ASD02508246
  55   60    0    0    0
SMALL
NO_CHARGES


@<TRIPOS>ATOM
   1 C1            -7.0087     1.4846    -2.0643 C.ar    
   2 C2            -5.8625     2.1174    -1.5838 C.ar    
   3 C3            -4.8883     1.3750    -0.9349 C.ar    
   4 C4            -5.0566     0.0144    -0.7673 C.ar    
   5 C5            -6.1943    -0.6128    -1.2450 C.ar    
   6 C6            -7.1730     0.1196    -1.8881 C.ar    
   7 S7            -3.8170    -0.9275     0.0578 S.o2    
   8 N8            -4.2720    -1.0526     1.6452 N.am    
   9 C9            -4.4061     0.0989     2.4269 C.ar    
  10 N10           -7.7906     2.4743    -2.6592 N.am    
  11 C11           -7.1303     3.6425    -2.5334 C.2     
  12 O12           -5.9718     3.4339    -1.8883 O.3     
  13 O13           -3.8835    -2.2397    -0.4833 O.2     
  14 O14           -2.6354    -0.1384     0.0401 O.2     
  15 C15           -9.0920     2.2798    -3.3032 C.3     
  16 O16           -7.5232     4.7187    -2.9410 O.2     
  17 C17           -5.5222     0.2602     3.2312 C.ar    
  18 C18           -3.4136     1.0767     2.3977 C.ar    
  19 C19           -3.5287     2.2066     3.1556 C.ar    
  20 C20           -4.6495     2.3905     3.9695 C.ar    
  21 C21           -5.6504     1.4045     4.0053 C.ar    
  22 N22           -5.0395     3.3808     4.8144 N.2     
  23 C23           -6.1860     3.0752     5.3470 C.2     
  24 N24           -6.6095     1.8666     4.8844 N.am    
  25 S25           -8.0154     1.0952     5.2977 S.o2    
  26 C26           -9.0081     1.0061     3.8446 C.ar    
  27 C27           -9.4884     2.1671     3.2603 C.ar    
  28 C28          -10.2737     2.0890     2.1100 C.ar    
  29 C29          -10.5713     0.8542     1.5560 C.ar    
  30 C30          -10.0882    -0.2981     2.1459 C.ar    
  31 C31           -9.3038    -0.2212     3.2831 C.ar    
  32 O32           -9.3621     3.4801     3.5729 O.3     
  33 C33          -10.0316     4.2146     2.6708 C.2     
  34 N34          -10.6015     3.3990     1.7616 N.am    
  35 C35          -11.4160     3.8130     0.6164 C.3     
  36 O36          -10.1120     5.4279     2.6735 O.2     
  37 O37           -7.6591    -0.2415     5.6228 O.2     
  38 O38           -8.6973     1.9584     6.1971 O.2     
  39 H39           -3.9985     1.8598    -0.5611 H       
  40 H40           -6.3189    -1.6772    -1.1110 H       
  41 H41           -8.0603    -0.3713    -2.2598 H       
  42 H42           -4.4454    -1.9248     2.0327 H       
  43 H43           -9.8846     2.4003    -2.5646 H       
  44 H44           -9.2190     3.0171    -4.0959 H       
  45 H45           -9.1409     1.2773    -3.7282 H       
  46 H46           -6.2886    -0.5004     3.2554 H       
  47 H47           -2.5454     0.9393     1.7702 H       
  48 H48           -2.7534     2.9580     3.1262 H       
  49 H49           -6.7221     3.6889     6.0558 H       
  50 H50          -11.1795     0.7927     0.6657 H       
  51 H51          -10.3196    -1.2611     1.7154 H       
  52 H52           -8.9288    -1.1254     3.7395 H       
  53 H53          -11.4985     4.8997     0.6032 H       
  54 H54          -10.9452     3.4730    -0.3060 H       
  55 H55          -12.4102     3.3741     0.7001 H       
@<TRIPOS>BOND
   1    1    2 ar
   2    1   10 1
   3    1    6 ar
   4    2    3 ar
   5    2   12 1
   6    3    4 ar
   7    3   39 1
   8    4    5 ar
   9    4    7 1
  10    5    6 ar
  11    5   40 1
  12    6   41 1
  13    7    8 am
  14    7   13 2
  15    7   14 2
  16    8    9 1
  17    8   42 1
  18    9   17 ar
  19    9   18 ar
  20   10   11 am
  21   10   15 1
  22   11   12 1
  23   11   16 2
  24   15   43 1
  25   15   44 1
  26   15   45 1
  27   17   21 ar
  28   17   46 1
  29   18   19 ar
  30   18   47 1
  31   19   20 ar
  32   19   48 1
  33   20   21 ar
  34   20   22 1
  35   21   24 1
  36   22   23 2
  37   23   24 1
  38   23   49 1
  39   24   25 am
  40   25   26 1
  41   25   37 2
  42   25   38 2
  43   26   27 ar
  44   26   31 ar
  45   27   28 ar
  46   27   32 1
  47   28   29 ar
  48   28   34 1
  49   29   30 ar
  50   29   50 1
  51   30   31 ar
  52   30   51 1
  53   31   52 1
  54   32   33 1
  55   33   34 am
  56   33   36 2
  57   34   35 1
  58   35   53 1
  59   35   54 1
  60   35   55 1

#	End of record

