#	Name: ASD03930169
#	Creating user name:	WinNT
#	Creation time:	15. 06. 2019 20:47

#	Modifying user name:	WinNT
#	Modification time:	15. 06. 2019 20:47

#	Program:	/corina/corina34_cracker 3.40 0067  02.08.2006

@<TRIPOS>MOLECULE
ASD03930169
  29   29    0    0    0
SMALL
NO_CHARGES


@<TRIPOS>ATOM
   1 C1            -1.4227     1.5470    -1.1532 C.2     
   2 C2            -1.7225     0.0705    -1.1869 C.3     
   3 O3            -1.3966     2.1818    -2.1810 O.2     
   4 O4            -1.1901     2.1582     0.0194 O.3     
   5 C5            -1.0379     3.5087    -0.0081 C.ar    
   6 C6            -2.1439     4.3270    -0.1687 C.ar    
   7 C7            -1.9835     5.7112    -0.1959 C.ar    
   8 C8            -0.7096     6.2640    -0.0612 C.ar    
   9 C9             0.3860     5.4404     0.0983 C.ar    
  10 C10            0.2251     4.0675     0.1305 C.ar    
  11 C11           -3.1609     6.5921    -0.3677 C.2     
  12 N12           -4.4225     6.0417    -0.5015 N.pl3   
  13 N13           -3.0086     7.8846    -0.3928 N.2     
  14 O14           -3.9773     8.6093    -0.5341 O.3     
  15 C15           -3.7515     9.9311    -0.5513 C.2     
  16 O16           -2.6222    10.3547    -0.4293 O.2     
  17 C17           -4.9015    10.8899    -0.7224 C.3     
  18 H18           -1.8871    -0.2434    -2.2176 H       
  19 H19           -0.8800    -0.4809    -0.7693 H       
  20 H20           -2.6171    -0.1321    -0.5980 H       
  21 H21           -3.1276     3.8936    -0.2729 H       
  22 H22           -0.5810     7.3361    -0.0821 H       
  23 H23            1.3716     5.8695     0.2025 H       
  24 H24            1.0855     3.4276     0.2597 H       
  25 H25           -4.5360     5.0786    -0.4828 H       
  26 H26           -5.1940     6.6189    -0.6140 H       
  27 H27           -5.6117    10.7547     0.0933 H       
  28 H28           -4.5261    11.9132    -0.7115 H       
  29 H29           -5.3985    10.6953    -1.6728 H       
@<TRIPOS>BOND
   1    1    2 1
   2    1    3 2
   3    1    4 1
   4    2   18 1
   5    2   19 1
   6    2   20 1
   7    4    5 1
   8    5    6 ar
   9    5   10 ar
  10    6    7 ar
  11    6   21 1
  12    7    8 ar
  13    7   11 1
  14    8    9 ar
  15    8   22 1
  16    9   10 ar
  17    9   23 1
  18   10   24 1
  19   11   12 1
  20   11   13 2
  21   12   25 1
  22   12   26 1
  23   13   14 1
  24   14   15 1
  25   15   16 2
  26   15   17 1
  27   17   27 1
  28   17   28 1
  29   17   29 1

#	End of record

