#	Name: ASD01880208
#	Creating user name:	WinNT
#	Creation time:	15. 06. 2019 19:40

#	Modifying user name:	WinNT
#	Modification time:	15. 06. 2019 19:40

#	Program:	/corina/corina34_cracker 3.40 0067  02.08.2006

@<TRIPOS>MOLECULE
ASD01880208
  48   52    0    0    0
SMALL
NO_CHARGES


@<TRIPOS>ATOM
   1 C1            -0.0170     1.4008     0.0097 C.ar    
   2 C2             0.0021    -0.0041     0.0020 C.ar    
   3 N3            -1.3195    -0.4031     0.0133 N.pl3   
   4 C4            -2.0822     0.7232     0.0270 C.2     
   5 N5            -1.3211     1.7785     0.0297 N.2     
   6 C6             1.1902     2.1048     0.0020 C.ar    
   7 C7             2.3747     1.4245    -0.0130 C.ar    
   8 C8             2.3940     0.0369    -0.0211 C.ar    
   9 C9             1.2156    -0.6783    -0.0135 C.ar    
  10 C10           -1.8097    -1.7837     0.0104 C.3     
  11 C11           -3.5889     0.7455     0.0424 C.3     
  12 N12           -4.0645     0.7453     1.4323 N.3     
  13 C13           -5.5254     1.0074     1.4951 C.3     
  14 C14           -5.7695     1.5061     2.9356 C.3     
  15 C15           -4.4106     2.0688     3.4007 C.3     
  16 C16           -3.4597     1.8627     2.2021 C.3     
  17 C17           -5.6097     3.0013     3.2181 C.3     
  18 H18           -4.0173     1.8692     4.3975 H       
  19 H19           -6.3879     0.8877     3.5862 H       
  20 C20           -6.2714     3.5548     4.4817 C.3     
  21 O21           -6.1159     4.9749     4.5178 O.3     
  22 C22           -6.6508     5.6273     5.5833 C.ar    
  23 C23           -6.5368     7.0063     5.6824 C.ar    
  24 C24           -7.0813     7.6671     6.7665 C.ar    
  25 C25           -7.7395     6.9552     7.7523 C.ar    
  26 C26           -7.8540     5.5806     7.6561 C.ar    
  27 C27           -7.3165     4.9158     6.5709 C.ar    
  28 H28            1.1866     3.1847     0.0075 H       
  29 H29            3.3055     1.9721    -0.0189 H       
  30 H30            3.3388    -0.4862    -0.0336 H       
  31 H31            1.2362    -1.7581    -0.0193 H       
  32 H32           -1.9211    -2.1318     1.0373 H       
  33 H33           -2.7749    -1.8255    -0.4942 H       
  34 H34           -1.0976    -2.4210    -0.5140 H       
  35 H35           -3.9442     1.6435    -0.4631 H       
  36 H36           -3.9706    -0.1363    -0.4723 H       
  37 H37           -5.8051     1.7757     0.7743 H       
  38 H38           -6.0845     0.0901     1.3105 H       
  39 H39           -2.4635     1.5894     2.5498 H       
  40 H40           -3.4161     2.7648     1.5919 H       
  41 H41           -5.5959     3.6756     2.3619 H       
  42 H42           -7.3324     3.3055     4.4753 H       
  43 H43           -5.8002     3.1153     5.3609 H       
  44 H44           -6.0226     7.5628     4.9128 H       
  45 H45           -6.9926     8.7406     6.8442 H       
  46 H46           -8.1645     7.4736     8.5990 H       
  47 H47           -8.3679     5.0267     8.4277 H       
  48 H48           -7.4063     3.8422     6.4961 H       
@<TRIPOS>BOND
   1    1    2 ar
   2    1    6 ar
   3    1    5 1
   4    2    3 1
   5    2    9 ar
   6    3    4 1
   7    3   10 1
   8    4    5 2
   9    4   11 1
  10    6    7 ar
  11    6   28 1
  12    7    8 ar
  13    7   29 1
  14    8    9 ar
  15    8   30 1
  16    9   31 1
  17   10   32 1
  18   10   33 1
  19   10   34 1
  20   11   12 1
  21   11   35 1
  22   11   36 1
  23   12   13 1
  24   12   16 1
  25   13   14 1
  26   13   37 1
  27   13   38 1
  28   14   15 1
  29   14   19 1
  30   14   17 1
  31   15   16 1
  32   15   18 1
  33   15   17 1
  34   16   39 1
  35   16   40 1
  36   17   20 1
  37   17   41 1
  38   20   21 1
  39   20   42 1
  40   20   43 1
  41   21   22 1
  42   22   23 ar
  43   22   27 ar
  44   23   24 ar
  45   23   44 1
  46   24   25 ar
  47   24   45 1
  48   25   26 ar
  49   25   46 1
  50   26   27 ar
  51   26   47 1
  52   27   48 1

#	End of record

