#	Name: ASD01911127
#	Creating user name:	WinNT
#	Creation time:	15. 06. 2019 19:57

#	Modifying user name:	WinNT
#	Modification time:	15. 06. 2019 19:57

#	Program:	/corina/corina34_cracker 3.40 0067  02.08.2006

@<TRIPOS>MOLECULE
ASD01911127
  45   48    0    0    0
SMALL
NO_CHARGES


@<TRIPOS>ATOM
   1 C1            -0.2004     1.1526     1.1234 C.2     
   2 O2            -0.3564    -0.0474     1.0073 O.2     
   3 N3             1.0398     1.6783     1.0785 N.am    
   4 C4             2.2192     0.8072     0.9842 C.3     
   5 C5             3.1873     1.1636     2.1167 C.3     
   6 C6             3.5046     2.6597     2.0592 C.3     
   7 C7             2.2171     3.4638     2.2533 C.3     
   8 C8             1.2377     3.1337     1.1167 C.3     
   9 O9             5.2910     0.4062     0.9113 O.3     
  10 N10            6.2220    -0.3485     1.0980 N.2     
  11 C11            6.0982    -0.9373     2.2558 C.2     
  12 N12            4.9622    -0.4775     2.8195 N.2     
  13 C13            4.4603     0.3729     1.9577 C.2     
  14 O14            6.9527    -1.8434     2.7925 O.3     
  15 C15            8.1167    -2.0896     2.1358 C.ar    
  16 C16            8.4822    -1.3047     1.0519 C.ar    
  17 C17            9.6676    -1.5576     0.3853 C.ar    
  18 C18           10.4882    -2.5936     0.8001 C.ar    
  19 C19           10.1244    -3.3758     1.8799 C.ar    
  20 C20            8.9439    -3.1228     2.5519 C.ar    
  21 F21           10.0248    -0.7944    -0.6707 F       
  22 C22           -1.3711     2.0356     1.3077 C.ar    
  23 C23           -1.4422     3.2552     0.6319 C.ar    
  24 C24           -2.5373     4.0746     0.8075 C.ar    
  25 C25           -3.5652     3.6901     1.6526 C.ar    
  26 C26           -3.5000     2.4814     2.3261 C.ar    
  27 C27           -2.4128     1.6507     2.1537 C.ar    
  28 Cl28          -4.9403     4.7272     1.8690 Cl      
  29 H29            1.9127    -0.2344     1.0797 H       
  30 H30            2.7098     0.9592     0.0227 H       
  31 H31            2.7280     0.9258     3.0762 H       
  32 H32            4.2125     2.9113     2.8489 H       
  33 H33            3.9411     2.9013     1.0901 H       
  34 H34            1.7670     3.2043     3.2115 H       
  35 H35            2.4473     4.5291     2.2356 H       
  36 H36            1.6499     3.4715     0.1659 H       
  37 H37            0.2834     3.6276     1.2997 H       
  38 H38            7.8418    -0.4973     0.7287 H       
  39 H39           11.4134    -2.7906     0.2789 H       
  40 H40           10.7658    -4.1830     2.2016 H       
  41 H41            8.6632    -3.7317     3.3985 H       
  42 H42           -0.6411     3.5564    -0.0268 H       
  43 H43           -2.5935     5.0183     0.2853 H       
  44 H44           -4.3041     2.1872     2.9843 H       
  45 H45           -2.3653     0.7064     2.6756 H       
@<TRIPOS>BOND
   1    1    2 2
   2    1    3 am
   3    1   22 1
   4    3    4 1
   5    3    8 1
   6    4    5 1
   7    4   29 1
   8    4   30 1
   9    5    6 1
  10    5   13 1
  11    5   31 1
  12    6    7 1
  13    6   32 1
  14    6   33 1
  15    7    8 1
  16    7   34 1
  17    7   35 1
  18    8   36 1
  19    8   37 1
  20    9   10 1
  21    9   13 1
  22   10   11 2
  23   11   12 1
  24   11   14 1
  25   12   13 2
  26   14   15 1
  27   15   16 ar
  28   15   20 ar
  29   16   17 ar
  30   16   38 1
  31   17   18 ar
  32   17   21 1
  33   18   19 ar
  34   18   39 1
  35   19   20 ar
  36   19   40 1
  37   20   41 1
  38   22   23 ar
  39   22   27 ar
  40   23   24 ar
  41   23   42 1
  42   24   25 ar
  43   24   43 1
  44   25   26 ar
  45   25   28 1
  46   26   27 ar
  47   26   44 1
  48   27   45 1

#	End of record

