#	Name: ASD03430075
#	Creating user name:	WinNT
#	Creation time:	15. 06. 2019 20:40

#	Modifying user name:	WinNT
#	Modification time:	15. 06. 2019 20:40

#	Program:	/corina/corina34_cracker 3.40 0067  02.08.2006

@<TRIPOS>MOLECULE
ASD03430075
  58   64    0    0    0
SMALL
NO_CHARGES


@<TRIPOS>ATOM
   1 C1             0.4823     1.1090    -0.6265 C.ar    
   2 C2             0.4476    -0.2676    -0.4801 C.ar    
   3 C3             1.6138    -0.9715    -0.2633 C.ar    
   4 C4             2.8355    -0.3106    -0.1775 C.ar    
   5 C5             2.8679     1.0723    -0.3295 C.ar    
   6 C6             1.7007     1.7802    -0.5529 C.ar    
   7 O7             3.8536    -1.1845     0.0676 O.3     
   8 C8             1.9065    -2.4381    -0.0935 C.3     
   9 C9             3.4285    -2.5173    -0.2761 C.3     
  10 C10            0.5881    -3.9943     0.9821 C.ar    
  11 C11            1.4756    -2.9565     1.2461 C.ar    
  12 C12            1.1790    -3.2831    -1.0997 C.2     
  13 N13            0.4352    -4.1604    -0.3969 N.am    
  14 O14            1.2474    -3.1935    -2.3073 O.2     
  15 C15            1.7843    -2.6092     2.5537 C.ar    
  16 C16            1.2003    -3.3051     3.6124 C.ar    
  17 C17            0.3190    -4.3348     3.3509 C.ar    
  18 C18            0.0128    -4.6803     2.0499 C.ar    
  19 C19            2.7331    -1.5013     2.8250 C.ar    
  20 O20           -0.5076     2.0225    -0.8514 O.3     
  21 C21            0.0621     3.2991    -0.5066 C.3     
  22 O22            1.4733     3.1148    -0.7323 O.3     
  23 C23           -0.4318    -5.1711    -1.0077 C.3     
  24 C24           -1.8100    -4.5956    -1.2084 C.ar    
  25 C25           -2.1477    -4.0416    -2.4285 C.ar    
  26 C26           -3.4185    -3.5147    -2.6029 C.ar    
  27 C27           -4.3054    -3.5652    -1.5387 C.ar    
  28 C28           -3.8966    -4.1351    -0.3476 C.ar    
  29 N29           -2.6817    -4.6313    -0.2194 N.ar    
  30 C30            2.4533    -0.2147     2.3681 C.ar    
  31 C31            3.3371     0.8131     2.6218 C.ar    
  32 C32            4.5049     0.5670     3.3311 C.ar    
  33 C33            4.7866    -0.7137     3.7871 C.ar    
  34 C34            3.9033    -1.7441     3.5422 C.ar    
  35 O35            5.3740     1.5815     3.5792 O.3     
  36 C36            6.5559     1.2581     4.3144 C.3     
  37 H37           -0.4952    -0.7914    -0.5356 H       
  38 H38            3.8104     1.5963    -0.2719 H       
  39 H39            3.6826    -2.7501    -1.3102 H       
  40 H40            3.8625    -3.2497     0.4046 H       
  41 H41            1.4364    -3.0391     4.6322 H       
  42 H42           -0.1338    -4.8742     4.1697 H       
  43 H43           -0.6781    -5.4880     1.8582 H       
  44 H44           -0.3290     4.0813    -1.1573 H       
  45 H45           -0.1336     3.5360     0.5391 H       
  46 H46           -0.0188    -5.4697    -1.9712 H       
  47 H47           -0.4929    -6.0407    -0.3534 H       
  48 H48           -1.4308    -4.0189    -3.2359 H       
  49 H49           -3.7102    -3.0751    -3.5453 H       
  50 H50           -5.3032    -3.1641    -1.6389 H       
  51 H51           -4.5814    -4.1780     0.4864 H       
  52 H52            1.5453    -0.0228     1.8157 H       
  53 H53            3.1208     1.8103     2.2680 H       
  54 H54            5.6961    -0.9023     4.3380 H       
  55 H55            4.1227    -2.7401     3.8975 H       
  56 H56            7.1611     2.1555     4.4425 H       
  57 H57            6.2790     0.8639     5.2923 H       
  58 H58            7.1290     0.5080     3.7694 H       
@<TRIPOS>BOND
   1    1    2 ar
   2    1    6 ar
   3    1   20 1
   4    2    3 ar
   5    2   37 1
   6    3    4 ar
   7    3    8 1
   8    4    5 ar
   9    4    7 1
  10    5    6 ar
  11    5   38 1
  12    6   22 1
  13    7    9 1
  14    8    9 1
  15    8   11 1
  16    8   12 1
  17    9   39 1
  18    9   40 1
  19   10   11 ar
  20   10   13 1
  21   10   18 ar
  22   11   15 ar
  23   12   13 am
  24   12   14 2
  25   13   23 1
  26   15   16 ar
  27   15   19 1
  28   16   17 ar
  29   16   41 1
  30   17   18 ar
  31   17   42 1
  32   18   43 1
  33   19   30 ar
  34   19   34 ar
  35   20   21 1
  36   21   22 1
  37   21   44 1
  38   21   45 1
  39   23   24 1
  40   23   46 1
  41   23   47 1
  42   24   25 ar
  43   24   29 ar
  44   25   26 ar
  45   25   48 1
  46   26   27 ar
  47   26   49 1
  48   27   28 ar
  49   27   50 1
  50   28   29 ar
  51   28   51 1
  52   30   31 ar
  53   30   52 1
  54   31   32 ar
  55   31   53 1
  56   32   33 ar
  57   32   35 1
  58   33   34 ar
  59   33   54 1
  60   34   55 1
  61   35   36 1
  62   36   56 1
  63   36   57 1
  64   36   58 1

#	End of record

