#	Name: ASD03740261
#	Creating user name:	WinNT
#	Creation time:	15. 06. 2019 20:47

#	Modifying user name:	WinNT
#	Modification time:	15. 06. 2019 20:47

#	Program:	/corina/corina34_cracker 3.40 0067  02.08.2006

@<TRIPOS>MOLECULE
ASD03740261
  56   59    0    0    0
SMALL
NO_CHARGES


@<TRIPOS>ATOM
   1 C1            -0.0091     1.3983     0.1207 C.2     
   2 C2             6.5033    -4.4592    -2.3461 C.ar    
   3 C3             7.4775    -5.4347    -2.4103 C.ar    
   4 C4             0.0097     0.0023     0.1618 C.2     
   5 C5             6.7287    -6.3296    -0.3074 C.ar    
   6 C6             1.2707     1.8292     0.0107 C.2     
   7 C7             5.6348    -4.4136    -1.2619 C.ar    
   8 C8             7.5946    -6.3740    -1.3938 C.ar    
   9 C9             5.7585    -5.3544    -0.2458 C.ar    
  10 C10            1.3335    -0.3871     0.0734 C.2     
  11 C11            1.9439    -1.6664     0.0660 C.2     
  12 C12            3.3340    -1.7577    -0.0365 C.2     
  13 C13            3.9985    -3.0690    -0.0474 C.2     
  14 C14            4.1178    -0.5247    -0.1334 C.2     
  15 C15            5.5515     3.8791    -3.2663 C.3     
  16 C16            4.5059     4.7208    -1.1590 C.3     
  17 C17           10.7111    -5.8822    -0.5647 C.3     
  18 C18            4.4525     2.2804    -1.6920 C.3     
  19 C19            4.2862     1.8966    -0.2202 C.3     
  20 C20            5.2795     3.5636    -1.7942 C.3     
  21 N21            4.6435    -3.4348    -1.1941 N.pl3   
  22 N22            2.0998     0.7526    -0.0193 N.pl3   
  23 N23            3.9240    -3.7833     1.0340 N.am    
  24 N24            3.4944     0.6679    -0.1224 N.am    
  25 N25            8.5823    -7.3629    -1.4633 N.am    
  26 O26            5.3309    -0.5783    -0.2232 O.2     
  27 O27            3.6324    -6.2333     0.8800 O.2     
  28 O28            5.4531    -5.2604     2.2954 O.2     
  29 O29            9.9693    -6.2215    -3.1051 O.2     
  30 O30           10.8290    -8.1962    -1.8876 O.2     
  31 O31            1.1904    -2.7838     0.1575 O.3     
  32 S32            4.6496    -5.2713     1.1235 S.o2    
  33 S33           10.1276    -6.9604    -1.9017 S.o2    
  34 H34           -0.8886     2.0236     0.1643 H       
  35 H35            6.4185    -3.7282    -3.1366 H       
  36 H36            8.1509    -5.4681    -3.2540 H       
  37 H37           -0.8473    -0.6495     0.2468 H       
  38 H38            6.8160    -7.0580     0.4852 H       
  39 H39            1.5820     2.8619    -0.0446 H       
  40 H40            6.1406     4.7933    -3.3391 H       
  41 H41            6.1026     3.0547    -3.7188 H       
  42 H42            4.6050     4.0142    -3.7899 H       
  43 H43            4.3121     4.4960    -0.1102 H       
  44 H44            5.0950     5.6349    -1.2318 H       
  45 H45            3.5594     4.8558    -1.6826 H       
  46 H46           10.6847    -6.4268     0.3791 H       
  47 H47           11.7331    -5.5657    -0.7730 H       
  48 H48           10.0661    -5.0061    -0.4968 H       
  49 H49            4.9629     1.4761    -2.2218 H       
  50 H50            3.4714     2.4439    -2.1379 H       
  51 H51            5.2673     1.7331     0.2257 H       
  52 H52            3.7758     2.7009     0.3095 H       
  53 H53            6.2259     3.4285    -1.2706 H       
  54 H54            4.3959    -2.9836    -2.0163 H       
  55 H55            8.3617    -8.2842    -1.2546 H       
  56 H56            1.6922    -3.6052     0.0652 H       
@<TRIPOS>BOND
   1    1    4 1
   2    1    6 2
   3    1   34 1
   4    2    3 ar
   5    2    7 ar
   6    2   35 1
   7    3    8 ar
   8    3   36 1
   9    4   10 2
  10    4   37 1
  11    5    8 ar
  12    5    9 ar
  13    5   38 1
  14    6   22 1
  15    6   39 1
  16    7    9 ar
  17    7   21 1
  18    8   25 1
  19    9   32 1
  20   10   11 1
  21   10   22 1
  22   11   12 2
  23   11   31 1
  24   12   13 1
  25   12   14 1
  26   13   21 1
  27   13   23 2
  28   14   24 am
  29   14   26 2
  30   15   20 1
  31   15   40 1
  32   15   41 1
  33   15   42 1
  34   16   20 1
  35   16   43 1
  36   16   44 1
  37   16   45 1
  38   17   33 1
  39   17   46 1
  40   17   47 1
  41   17   48 1
  42   18   19 1
  43   18   20 1
  44   18   49 1
  45   18   50 1
  46   19   24 1
  47   19   51 1
  48   19   52 1
  49   20   53 1
  50   21   54 1
  51   22   24 1
  52   23   32 am
  53   25   33 am
  54   25   55 1
  55   27   32 2
  56   28   32 2
  57   29   33 2
  58   30   33 2
  59   31   56 1

#	End of record

