#	Name: ASD00170051
#	Creating user name:	WinNT
#	Creation time:	15. 06. 2019 18:31

#	Modifying user name:	WinNT
#	Modification time:	15. 06. 2019 18:31

#	Program:	/corina/corina34_cracker 3.40 0067  02.08.2006

@<TRIPOS>MOLECULE
ASD00170051
  35   36    0    0    0
SMALL
NO_CHARGES


@<TRIPOS>ATOM
   1 C1            -0.0214     1.3259    -0.1132 C.2     
   2 C2             0.0017     0.0026    -0.1431 C.2     
   3 C3            -1.3077    -0.5945     0.0156 C.2     
   4 C4            -2.3036     0.3431     0.1646 C.2     
   5 S5            -1.6560     1.9190     0.1198 S.3     
   6 N6            -3.6412     0.0481     0.3323 N.pl3   
   7 C7             1.1945     2.2050    -0.2539 C.3     
   8 C8            -1.5460    -2.0374     0.0166 C.2     
   9 C9            -1.7876    -2.7481    -1.2582 C.ar    
  10 O10           -1.5455    -2.6539     1.0667 O.2     
  11 C11           -1.8960    -2.0312    -2.4506 C.ar    
  12 C12           -2.1213    -2.7000    -3.6361 C.ar    
  13 C13           -2.2399    -4.0784    -3.6445 C.ar    
  14 C14           -2.1334    -4.7952    -2.4656 C.ar    
  15 C15           -1.9024    -4.1392    -1.2744 C.ar    
  16 C16            1.2635    -0.8011    -0.3248 C.3     
  17 C17            1.8776    -1.1027     1.0437 C.3     
  18 C18           -2.2643    -6.2964    -2.4840 C.3     
  19 F19           -2.4879    -6.7289    -3.7956 F       
  20 F20           -1.0864    -6.8733    -1.9972 F       
  21 F21           -3.3401    -6.6807    -1.6765 F       
  22 H22           -3.9461    -0.8710     0.2750 H       
  23 H23           -4.2766     0.7598     0.5076 H       
  24 H24            1.3548     2.4377    -1.3066 H       
  25 H25            1.0411     3.1293     0.3032 H       
  26 H26            2.0672     1.6840     0.1400 H       
  27 H27           -1.8040    -0.9551    -2.4453 H       
  28 H28           -2.2058    -2.1464    -4.5595 H       
  29 H29           -2.4166    -4.5971    -4.5751 H       
  30 H30           -1.8194    -4.6998    -0.3550 H       
  31 H31            1.0283    -1.7370    -0.8317 H       
  32 H32            1.9738    -0.2318    -0.9243 H       
  33 H33            1.1673    -1.6721     1.6432 H       
  34 H34            2.7902    -1.6841     0.9123 H       
  35 H35            2.1128    -0.1669     1.5506 H       
@<TRIPOS>BOND
   1    1    2 2
   2    1    7 1
   3    1    5 1
   4    2    3 1
   5    2   16 1
   6    3    4 2
   7    3    8 1
   8    4    5 1
   9    4    6 1
  10    6   22 1
  11    6   23 1
  12    7   24 1
  13    7   25 1
  14    7   26 1
  15    8    9 1
  16    8   10 2
  17    9   11 ar
  18    9   15 ar
  19   11   12 ar
  20   11   27 1
  21   12   13 ar
  22   12   28 1
  23   13   14 ar
  24   13   29 1
  25   14   15 ar
  26   14   18 1
  27   15   30 1
  28   16   17 1
  29   16   31 1
  30   16   32 1
  31   17   33 1
  32   17   34 1
  33   17   35 1
  34   18   19 1
  35   18   20 1
  36   18   21 1

#	End of record

