#	Name: ASD01811190
#	Creating user name:	WinNT
#	Creation time:	15. 06. 2019 19:26

#	Modifying user name:	WinNT
#	Modification time:	15. 06. 2019 19:26

#	Program:	/corina/corina34_cracker 3.40 0067  02.08.2006

@<TRIPOS>MOLECULE
ASD01811190
  65   69    0    0    0
SMALL
NO_CHARGES


@<TRIPOS>ATOM
   1 C1            -0.0609     1.3849     0.0545 C.2     
   2 O2             0.2529     0.5898    -0.8097 O.2     
   3 N3             0.7979     1.6677     1.0540 N.am    
   4 C4             2.0809     0.9597     1.1614 C.3     
   5 C5             2.1983     0.3625     2.5672 C.3     
   6 C6             2.0026     1.4697     3.6054 C.3     
   7 C7             0.6047     2.0736     3.4524 C.3     
   8 C8             0.4716     2.6941     2.0533 C.3     
   9 C9             2.1513     0.8922     4.9894 C.ar    
  10 C10            2.3261     1.7318     6.0736 C.ar    
  11 C11            2.4625     1.2021     7.3431 C.ar    
  12 C12            2.4236    -0.1673     7.5285 C.ar    
  13 C13            2.2479    -1.0068     6.4444 C.ar    
  14 C14            2.1072    -0.4768     5.1754 C.ar    
  15 C15            2.5733    -0.7448     8.9123 C.3     
  16 F16            1.3125    -0.8640     9.5068 F       
  17 F17            3.1706    -2.0071     8.8287 F       
  18 F18            3.3758     0.1004     9.6861 F       
  19 F19            2.9647     2.4665     3.4108 F       
  20 C20           -1.3824     2.0464     0.0059 C.ar    
  21 C21           -2.5479     1.2785    -0.0514 C.ar    
  22 C22           -3.7825     1.8947    -0.0963 C.ar    
  23 C23           -3.8742     3.2726    -0.0854 C.ar    
  24 C24           -2.7172     4.0521    -0.0283 C.ar    
  25 C25           -1.4683     3.4368     0.0230 C.ar    
  26 C26           -2.4574    -0.2257    -0.0647 C.3     
  27 N27           -3.6395     7.4882     0.0328 N.2     
  28 N28           -3.9221     6.2345     0.0416 N.2     
  29 C29           -2.8174     5.5276    -0.0173 C.2     
  30 N30           -1.7719     6.4179    -0.0661 N.pl3   
  31 C31           -2.3402     7.6566    -0.0321 C.2     
  32 O32           -1.6846     8.8419    -0.0604 O.3     
  33 C33           -2.4830    10.0262    -0.0148 C.3     
  34 C34           -5.2262     3.9365    -0.1357 C.3     
  35 C35           -6.0812     3.5025    -1.3380 C.3     
  36 C36           -7.2848     3.4992    -0.3808 C.3     
  37 C37           -6.2789     3.2588     0.7573 C.3     
  38 H38            2.1206     0.1611     0.4206 H       
  39 H39            2.8995     1.6592     0.9919 H       
  40 H40            1.4337    -0.4024     2.7026 H       
  41 H41            3.1853    -0.0829     2.6920 H       
  42 H42           -0.1449     1.2925     3.5794 H       
  43 H43            0.4574     2.8460     4.2072 H       
  44 H44            1.1617     3.5321     1.9551 H       
  45 H45           -0.5507     3.0402     1.9013 H       
  46 H46            2.3564     2.8016     5.9287 H       
  47 H47            2.5998     1.8580     8.1900 H       
  48 H48            2.2179    -2.0766     6.5892 H       
  49 H49            1.9662    -1.1326     4.3290 H       
  50 H50           -4.6805     1.2964    -0.1405 H       
  51 H51           -0.5704     4.0350     0.0717 H       
  52 H52           -2.3859    -0.5944     0.9586 H       
  53 H53           -3.3478    -0.6391    -0.5384 H       
  54 H54           -1.5731    -0.5315    -0.6238 H       
  55 H55           -0.8260     6.2085    -0.1145 H       
  56 H56           -3.0662    10.0360     0.9060 H       
  57 H57           -1.8353    10.9024    -0.0440 H       
  58 H58           -3.1565    10.0435    -0.8717 H       
  59 H59           -5.1721     5.0174    -0.0058 H       
  60 H60           -6.1483     4.2576    -2.1213 H       
  61 H61           -5.8257     2.5148    -1.7217 H       
  62 H62           -7.7946     4.4605    -0.3171 H       
  63 H63           -7.9688     2.6660    -0.5423 H       
  64 H64           -6.0774     2.2044     0.9465 H       
  65 H65           -6.5056     3.8170     1.6656 H       
@<TRIPOS>BOND
   1    1    2 2
   2    1    3 am
   3    1   20 1
   4    3    4 1
   5    3    8 1
   6    4    5 1
   7    4   38 1
   8    4   39 1
   9    5    6 1
  10    5   40 1
  11    5   41 1
  12    6    7 1
  13    6    9 1
  14    6   19 1
  15    7    8 1
  16    7   42 1
  17    7   43 1
  18    8   44 1
  19    8   45 1
  20    9   10 ar
  21    9   14 ar
  22   10   11 ar
  23   10   46 1
  24   11   12 ar
  25   11   47 1
  26   12   13 ar
  27   12   15 1
  28   13   14 ar
  29   13   48 1
  30   14   49 1
  31   15   16 1
  32   15   17 1
  33   15   18 1
  34   20   21 ar
  35   20   25 ar
  36   21   22 ar
  37   21   26 1
  38   22   23 ar
  39   22   50 1
  40   23   24 ar
  41   23   34 1
  42   24   25 ar
  43   24   29 1
  44   25   51 1
  45   26   52 1
  46   26   53 1
  47   26   54 1
  48   27   28 1
  49   27   31 2
  50   28   29 2
  51   29   30 1
  52   30   31 1
  53   30   55 1
  54   31   32 1
  55   32   33 1
  56   33   56 1
  57   33   57 1
  58   33   58 1
  59   34   35 1
  60   34   37 1
  61   34   59 1
  62   35   36 1
  63   35   60 1
  64   35   61 1
  65   36   37 1
  66   36   62 1
  67   36   63 1
  68   37   64 1
  69   37   65 1

#	End of record

