#	Name: ASD01028742
#	Creating user name:	WinNT
#	Creation time:	15. 06. 2019 18:58

#	Modifying user name:	WinNT
#	Modification time:	15. 06. 2019 18:58

#	Program:	/corina/corina34_cracker 3.40 0067  02.08.2006

@<TRIPOS>MOLECULE
ASD01028742
  29   31    0    0    0
SMALL
NO_CHARGES


@<TRIPOS>ATOM
   1 C1            -0.0178     1.4648     0.0101 C.3     
   2 N2             0.0021    -0.0041     0.0020 N.3     
   3 C3             2.2817     2.1061    -1.1651 C.ar    
   4 C4             3.4825     2.6404    -0.6641 C.ar    
   5 C5             4.5340     2.8780    -1.5438 C.ar    
   6 C6             4.3545     2.5776    -2.8804 C.ar    
   7 C7             3.1359     2.0490    -3.3110 C.ar    
   8 N8             2.1483     1.8309    -2.4560 N.ar    
   9 O9             3.3249     2.8140     0.6627 O.3     
  10 C10            1.3960     1.9864    -0.0006 C.2     
  11 C11            2.0991     2.4264     1.0530 C.2     
  12 C12            2.9446     1.7275    -4.7467 C.ar    
  13 C13            1.7335     1.1996    -5.1891 C.ar    
  14 C14            1.5596     0.9014    -6.5279 C.ar    
  15 C15            2.5874     1.1264    -7.4287 C.ar    
  16 C16            3.7930     1.6510    -6.9933 C.ar    
  17 C17            3.9735     1.9579    -5.6574 C.ar    
  18 F18            4.7921     1.8684    -7.8763 F       
  19 F19            0.3857     0.3895    -6.9580 F       
  20 H20           -0.5450     1.8259    -0.8730 H       
  21 H21           -0.5280     1.8163     0.9069 H       
  22 H22            0.5405    -0.3627     0.7764 H       
  23 H23           -0.9349    -0.3784     0.0090 H       
  24 H24            5.4685     3.2878    -1.1901 H       
  25 H25            5.1517     2.7510    -3.5880 H       
  26 H26            1.7318     2.4671     2.0678 H       
  27 H27            0.9318     1.0232    -4.4873 H       
  28 H28            2.4484     0.8917    -8.4737 H       
  29 H29            4.9122     2.3715    -5.3196 H       
@<TRIPOS>BOND
   1    1    2 1
   2    1   10 1
   3    1   20 1
   4    1   21 1
   5    2   22 1
   6    2   23 1
   7    3    4 ar
   8    3    8 ar
   9    3   10 1
  10    4    5 ar
  11    4    9 1
  12    5    6 ar
  13    5   24 1
  14    6    7 ar
  15    6   25 1
  16    7    8 ar
  17    7   12 1
  18    9   11 1
  19   10   11 2
  20   11   26 1
  21   12   13 ar
  22   12   17 ar
  23   13   14 ar
  24   13   27 1
  25   14   15 ar
  26   14   19 1
  27   15   16 ar
  28   15   28 1
  29   16   17 ar
  30   16   18 1
  31   17   29 1

#	End of record

