#	Name: ASD01880071
#	Creating user name:	WinNT
#	Creation time:	15. 06. 2019 19:39

#	Modifying user name:	WinNT
#	Modification time:	15. 06. 2019 19:39

#	Program:	/corina/corina34_cracker 3.40 0067  02.08.2006

@<TRIPOS>MOLECULE
ASD01880071
  49   51    0    0    0
SMALL
NO_CHARGES


@<TRIPOS>ATOM
   1 C1            -0.0167     1.3776     0.0096 C.ar    
   2 C2             0.0021    -0.0041     0.0020 C.ar    
   3 N3             1.1443    -0.6632    -0.0120 N.ar    
   4 C4             2.3054    -0.0383    -0.0197 C.ar    
   5 C5             2.3651     1.3426    -0.0133 C.ar    
   6 C6             1.1850     2.0698     0.0019 C.ar    
   7 C7             3.6964     2.0488    -0.0217 C.3     
   8 N8             4.1154     2.2846    -1.4056 N.am    
   9 C9             3.6624     3.4151    -2.0894 C.ar    
  10 S10            5.1261     1.2108    -2.1591 S.o2    
  11 C11            4.0114     0.0118    -2.9404 C.3     
  12 C12            4.8188    -0.9201    -3.8462 C.3     
  13 O13            5.7918     1.9885    -3.1445 O.2     
  14 O14            5.8466     0.6025    -1.0960 O.2     
  15 C15            3.2752     4.5469    -1.3836 C.ar    
  16 C16            2.8281     5.6633    -2.0630 C.ar    
  17 C17            2.7655     5.6548    -3.4442 C.ar    
  18 C18            3.1503     4.5295    -4.1502 C.ar    
  19 C19            3.6036     3.4120    -3.4775 C.ar    
  20 C20            2.4078     6.8917    -1.2980 C.3     
  21 C21            3.5255     7.9024    -1.3172 C.ar    
  22 C22            4.4237     7.9597    -0.2680 C.ar    
  23 C23            5.4489     8.8868    -0.2857 C.ar    
  24 C24            5.5761     9.7563    -1.3527 C.ar    
  25 C25            4.6785     9.6984    -2.4024 C.ar    
  26 C26            3.6558     8.7684    -2.3868 C.ar    
  27 O27            1.2443     7.4565    -1.9059 O.3     
  28 H28           -0.9553     1.9117     0.0170 H       
  29 H29           -0.9295    -0.5505     0.0080 H       
  30 H30            3.2203    -0.6121    -0.0308 H       
  31 H31            1.2010     3.1496     0.0072 H       
  32 H32            3.6050     3.0027     0.4978 H       
  33 H33            4.4390     1.4303     0.4824 H       
  34 H34            3.5106    -0.5744    -2.1699 H       
  35 H35            3.2672     0.5416    -3.5351 H       
  36 H36            4.1490    -1.6405    -4.3157 H       
  37 H37            5.3196    -0.3339    -4.6167 H       
  38 H38            5.5630    -1.4499    -3.2516 H       
  39 H39            3.3232     4.5538    -0.3047 H       
  40 H40            2.4149     6.5289    -3.9730 H       
  41 H41            3.0998     4.5261    -5.2290 H       
  42 H42            3.9043     2.5337    -4.0294 H       
  43 H43            2.1827     6.6184    -0.2671 H       
  44 H44            4.3242     7.2803     0.5656 H       
  45 H45            6.1502     8.9320     0.5344 H       
  46 H46            6.3767    10.4811    -1.3662 H       
  47 H47            4.7777    10.3780    -3.2359 H       
  48 H48            2.9545     8.7232    -3.2068 H       
  49 H49            1.3718     7.7234    -2.8265 H       
@<TRIPOS>BOND
   1    1    2 ar
   2    1    6 ar
   3    1   28 1
   4    2    3 ar
   5    2   29 1
   6    3    4 ar
   7    4    5 ar
   8    4   30 1
   9    5    6 ar
  10    5    7 1
  11    6   31 1
  12    7    8 1
  13    7   32 1
  14    7   33 1
  15    8    9 1
  16    8   10 am
  17    9   15 ar
  18    9   19 ar
  19   10   11 1
  20   10   13 2
  21   10   14 2
  22   11   12 1
  23   11   34 1
  24   11   35 1
  25   12   36 1
  26   12   37 1
  27   12   38 1
  28   15   16 ar
  29   15   39 1
  30   16   17 ar
  31   16   20 1
  32   17   18 ar
  33   17   40 1
  34   18   19 ar
  35   18   41 1
  36   19   42 1
  37   20   21 1
  38   20   27 1
  39   20   43 1
  40   21   22 ar
  41   21   26 ar
  42   22   23 ar
  43   22   44 1
  44   23   24 ar
  45   23   45 1
  46   24   25 ar
  47   24   46 1
  48   25   26 ar
  49   25   47 1
  50   26   48 1
  51   27   49 1

#	End of record

