#	Name: ASD09080141
#	Creating user name:	WinNT
#	Creation time:	15. 06. 2019 21:20

#	Modifying user name:	WinNT
#	Modification time:	15. 06. 2019 21:20

#	Program:	/corina/corina34_cracker 3.40 0067  02.08.2006

@<TRIPOS>MOLECULE
ASD09080141
  53   54    0    0    0
SMALL
NO_CHARGES


@<TRIPOS>ATOM
   1 C1            -0.2360     0.3133    -0.7981 C.ar    
   2 C2            -0.3782    -1.0490    -0.9978 C.ar    
   3 C3            -1.6386    -1.6202    -1.0320 C.ar    
   4 C4            -2.7612    -0.8323    -0.8663 C.ar    
   5 C5            -2.6232     0.5393    -0.6645 C.ar    
   6 C6            -1.3522     1.1087    -0.6257 C.ar    
   7 Cl7            1.3481     1.0223    -0.7570 Cl      
   8 Cl8           -1.8089    -3.3293    -1.2840 Cl      
   9 C9            -3.8258     1.3902    -0.4865 C.ar    
  10 C10           -3.6881     2.7620    -0.2847 C.ar    
  11 C11           -4.8101     3.5488    -0.1202 C.ar    
  12 C12           -6.0695     2.9778    -0.1554 C.ar    
  13 C13           -6.2120     1.6165    -0.3549 C.ar    
  14 C14           -5.0971     0.8212    -0.5263 C.ar    
  15 C15           -7.2908     3.8421     0.0249 C.3     
  16 C16           -7.7620     4.3500    -1.3392 C.3     
  17 N17           -8.2058     3.2172    -2.1554 N.am    
  18 C18           -8.9244     5.3260    -1.1463 C.3     
  19 O19           -9.9489     4.6995    -0.3717 O.3     
  20 C20           -8.4258     6.5753    -0.4172 C.3     
  21 O21           -7.3196     7.1329    -1.1296 O.3     
  22 C22           -8.2337     3.3245    -3.4986 C.2     
  23 C23           -8.6902     2.1592    -4.3382 C.3     
  24 O24           -7.8914     4.3587    -4.0316 O.2     
  25 O25           -8.6310     2.5161    -5.7207 O.3     
  26 C26           -9.0455     1.4754    -6.6079 C.3     
  27 C27           -9.5374     7.5900    -0.3415 C.2     
  28 O28           -9.4334     8.6445    -0.9220 O.2     
  29 O29          -10.6431     7.3222     0.3710 O.3     
  30 C30          -11.6727     8.3456     0.3995 C.3     
  31 H31            0.4970    -1.6682    -1.1277 H       
  32 H32           -3.7442    -1.2789    -0.8934 H       
  33 H33           -1.2401     2.1714    -0.4692 H       
  34 H34           -2.7052     3.2087    -0.2567 H       
  35 H35           -4.7045     4.6121     0.0366 H       
  36 H36           -7.1976     1.1758    -0.3808 H       
  37 H37           -5.2094    -0.2416    -0.6821 H       
  38 H38           -8.0848     3.2568     0.4888 H       
  39 H39           -7.0445     4.6906     0.6633 H       
  40 H40           -6.9394     4.8593    -1.8412 H       
  41 H41           -8.4796     2.3901    -1.7291 H       
  42 H42           -9.3263     5.6092    -2.1191 H       
  43 H43           -9.6615     4.4205     0.5084 H       
  44 H44           -8.1102     6.3060     0.5907 H       
  45 H45           -7.5281     7.3959    -2.0365 H       
  46 H46           -8.0404     1.3033    -4.1558 H       
  47 H47           -9.7153     1.9001    -4.0734 H       
  48 H48           -8.9716     1.8249    -7.6377 H       
  49 H49           -8.4031     0.6053    -6.4725 H       
  50 H50          -10.0780     1.2021    -6.3901 H       
  51 H51          -12.0186     8.5414    -0.6154 H       
  52 H52          -12.5091     8.0026     1.0085 H       
  53 H53          -11.2634     9.2610     0.8269 H       
@<TRIPOS>BOND
   1    1    2 ar
   2    1    7 1
   3    1    6 ar
   4    2    3 ar
   5    2   31 1
   6    3    4 ar
   7    3    8 1
   8    4    5 ar
   9    4   32 1
  10    5    6 ar
  11    5    9 1
  12    6   33 1
  13    9   10 ar
  14    9   14 ar
  15   10   11 ar
  16   10   34 1
  17   11   12 ar
  18   11   35 1
  19   12   13 ar
  20   12   15 1
  21   13   14 ar
  22   13   36 1
  23   14   37 1
  24   15   16 1
  25   15   38 1
  26   15   39 1
  27   16   17 1
  28   16   18 1
  29   16   40 1
  30   17   22 am
  31   17   41 1
  32   18   19 1
  33   18   20 1
  34   18   42 1
  35   19   43 1
  36   20   21 1
  37   20   27 1
  38   20   44 1
  39   21   45 1
  40   22   23 1
  41   22   24 2
  42   23   25 1
  43   23   46 1
  44   23   47 1
  45   25   26 1
  46   26   48 1
  47   26   49 1
  48   26   50 1
  49   27   28 2
  50   27   29 1
  51   29   30 1
  52   30   51 1
  53   30   52 1
  54   30   53 1

#	End of record

