#	Name: ASD01915101
#	Creating user name:	WinNT
#	Creation time:	15. 06. 2019 20:04

#	Modifying user name:	WinNT
#	Modification time:	15. 06. 2019 20:04

#	Program:	/corina/corina34_cracker 3.40 0067  02.08.2006

@<TRIPOS>MOLECULE
ASD01915101
  43   46    0    0    0
SMALL
NO_CHARGES


@<TRIPOS>ATOM
   1 C1             0.1503     1.5828    -0.0646 C.ar    
   2 C2             0.0952     0.1879    -0.0193 C.ar    
   3 N3            -1.0563    -0.4456    -0.2537 N.ar    
   4 C4            -2.1651     0.1998    -0.5312 C.ar    
   5 C5            -2.1897     1.5846    -0.5940 C.ar    
   6 C6            -1.0328     2.2934    -0.3561 C.ar    
   7 C7             1.4907     2.0874     0.2178 C.2     
   8 C8             2.3948     1.1416     0.4615 C.2     
   9 S9             1.6858    -0.4583     0.3673 S.3     
  10 C10            1.8176     3.5329     0.2320 C.ar    
  11 C11            1.4012     4.3340     1.2945 C.ar    
  12 C12            1.7086     5.6791     1.3030 C.ar    
  13 C13            2.4288     6.2336     0.2586 C.ar    
  14 C14            2.8447     5.4427    -0.7989 C.ar    
  15 C15            2.5476     4.0954    -0.8144 C.ar    
  16 Cl16           2.8113     7.9269     0.2750 Cl      
  17 S17            4.0884     1.4575     0.8310 S.o2    
  18 C18            4.1851     1.8387     2.5486 C.ar    
  19 O19            4.7743     0.2257     0.6541 O.2     
  20 O20            4.4355     2.6472     0.1358 O.2     
  21 C21            4.5998     3.0927     2.9559 C.ar    
  22 C22            4.6758     3.3917     4.3035 C.ar    
  23 C23            4.3366     2.4369     5.2435 C.ar    
  24 C24            3.9209     1.1828     4.8361 C.ar    
  25 C25            3.8408     0.8853     3.4887 C.ar    
  26 C26            4.4203     2.7626     6.7125 C.3     
  27 C27            3.3876    -0.4816     3.0446 C.3     
  28 H28           -3.0725    -0.3568    -0.7139 H       
  29 H29           -3.1088     2.1032    -0.8237 H       
  30 H30           -1.0298     3.3725    -0.3999 H       
  31 H31            0.8387     3.9026     2.1093 H       
  32 H32            1.3866     6.3005     2.1255 H       
  33 H33            3.4062     5.8803    -1.6110 H       
  34 H34            2.8728     3.4792    -1.6397 H       
  35 H35            4.8649     3.8388     2.2214 H       
  36 H36            5.0005     4.3714     4.6218 H       
  37 H37            3.6561     0.4366     5.5706 H       
  38 H38            3.4670     3.1698     7.0493 H       
  39 H39            4.6465     1.8557     7.2734 H       
  40 H40            5.2080     3.4977     6.8774 H       
  41 H41            2.3201    -0.4572     2.8256 H       
  42 H42            3.9358    -0.7728     2.1486 H       
  43 H43            3.5792    -1.2036     3.8384 H       
@<TRIPOS>BOND
   1    1    2 ar
   2    1    7 1
   3    1    6 ar
   4    2    3 ar
   5    2    9 1
   6    3    4 ar
   7    4    5 ar
   8    4   28 1
   9    5    6 ar
  10    5   29 1
  11    6   30 1
  12    7    8 2
  13    7   10 1
  14    8    9 1
  15    8   17 1
  16   10   11 ar
  17   10   15 ar
  18   11   12 ar
  19   11   31 1
  20   12   13 ar
  21   12   32 1
  22   13   14 ar
  23   13   16 1
  24   14   15 ar
  25   14   33 1
  26   15   34 1
  27   17   18 1
  28   17   19 2
  29   17   20 2
  30   18   21 ar
  31   18   25 ar
  32   21   22 ar
  33   21   35 1
  34   22   23 ar
  35   22   36 1
  36   23   24 ar
  37   23   26 1
  38   24   25 ar
  39   24   37 1
  40   25   27 1
  41   26   38 1
  42   26   39 1
  43   26   40 1
  44   27   41 1
  45   27   42 1
  46   27   43 1

#	End of record

