#	Name: ASD05490073
#	Creating user name:	WinNT
#	Creation time:	15. 06. 2019 21:01

#	Modifying user name:	WinNT
#	Modification time:	15. 06. 2019 21:01

#	Program:	/corina/corina34_cracker 3.40 0067  02.08.2006

@<TRIPOS>MOLECULE
ASD05490073
  68   72    0    0    0
SMALL
NO_CHARGES


@<TRIPOS>ATOM
   1 N1            -0.0178     1.4608     0.0101 N.pl3   
   2 O2             4.5582     2.8949    -0.0261 O.3     
   3 N3             2.7941     4.3826    -0.0015 N.ar    
   4 C4             1.4952     4.6638     0.0118 C.ar    
   5 C5             3.2233     3.1292    -0.0123 C.ar    
   6 N6             2.3949     2.0994    -0.0093 N.ar    
   7 C7             1.0795     2.2895     0.0040 C.ar    
   8 C8             0.5781     3.6006     0.0150 C.ar    
   9 N9             1.0558     5.9772     0.0226 N.pl3   
  10 C10           -1.1306     2.2546     0.0190 C.2     
  11 N11           -0.7773     3.5129     0.0270 N.2     
  12 C12            5.4173     4.0368    -0.0280 C.3     
  13 C13            6.8766     3.5771    -0.0442 C.3     
  14 O14            7.1483     2.8975    -1.2715 O.3     
  15 C15            8.4917     2.4246    -1.3889 C.3     
  16 C16            0.0021    -0.0041     0.0020 C.3     
  17 C17            0.0225    -0.5140     1.4200 C.ar    
  18 C18            1.2108    -0.5357     2.1294 C.ar    
  19 C19            1.2360    -1.0031     3.4326 C.ar    
  20 C20            0.0754    -1.4496     4.0302 C.ar    
  21 C21           -1.1237    -1.4293     3.3203 C.ar    
  22 C22           -1.1448    -0.9532     2.0110 C.ar    
  23 C23           -2.3748    -1.9084     3.9583 C.ar    
  24 Cl24           2.6746     0.0242     1.3827 Cl      
  25 C25           -2.3548    -2.3801     5.2691 C.ar    
  26 C26           -3.5216    -2.8246     5.8577 C.ar    
  27 C27           -4.7088    -2.8028     5.1486 C.ar    
  28 C28           -4.7342    -2.3359     3.8466 C.ar    
  29 C29           -3.5750    -1.8829     3.2506 C.ar    
  30 C30           -3.5017    -3.3351     7.2755 C.3     
  31 N31           -3.7485    -2.2211     8.2006 N.3     
  32 C32           -3.9727    -2.7131     9.5723 C.3     
  33 C33           -2.6056    -1.2834     8.2177 C.3     
  34 C34           -2.5472    -0.7575     9.6736 C.3     
  35 C35           -2.9317    -2.0255    10.4805 C.3     
  36 O36           -2.4073     1.8048     0.0270 O.3     
  37 C37           -3.4422     2.7900     0.0462 C.3     
  38 H38            1.6985     6.7037     0.0206 H       
  39 H39            0.1053     6.1706     0.0323 H       
  40 H40            5.2168     4.6408    -0.9129 H       
  41 H41            5.2335     4.6312     0.8670 H       
  42 H42            7.5315     4.4439     0.0439 H       
  43 H43            7.0539     2.9012     0.7924 H       
  44 H44            8.6170     1.9208    -2.3473 H       
  45 H45            9.1802     3.2675    -1.3287 H       
  46 H46            8.7025     1.7248    -0.5803 H       
  47 H47           -0.8878    -0.3767    -0.5053 H       
  48 H48            0.8920    -0.3525    -0.5222 H       
  49 H49            2.1657    -1.0184     3.9819 H       
  50 H50            0.0961    -1.8146     5.0465 H       
  51 H51           -2.0716    -0.9355     1.4568 H       
  52 H52           -1.4282    -2.3982     5.8235 H       
  53 H53           -5.6193    -3.1519     5.6129 H       
  54 H54           -5.6639    -2.3217     3.2972 H       
  55 H55           -3.5961    -1.5183     2.2342 H       
  56 H56           -4.2777    -4.0902     7.4007 H       
  57 H57           -2.5280    -3.7760     7.4893 H       
  58 H58           -4.9795    -2.4533     9.8996 H       
  59 H59           -3.8372    -3.7941     9.6053 H       
  60 H60           -1.6826    -1.8055     7.9655 H       
  61 H61           -2.7791    -0.4609     7.5238 H       
  62 H62           -1.5414    -0.4229     9.9279 H       
  63 H63           -3.2735     0.0401     9.8301 H       
  64 H64           -3.3756    -1.7531    11.4380 H       
  65 H65           -2.0631    -2.6678    10.6260 H       
  66 H66           -4.4139     2.2962     0.0508 H       
  67 H67           -3.3425     3.4042     0.9411 H       
  68 H68           -3.3595     3.4211    -0.8387 H       
@<TRIPOS>BOND
   1    1   16 1
   2    1    7 1
   3    1   10 1
   4    2   12 1
   5    2    5 1
   6    3    4 ar
   7    3    5 ar
   8    4    9 1
   9    4    8 ar
  10    5    6 ar
  11    6    7 ar
  12    7    8 ar
  13    8   11 1
  14    9   38 1
  15    9   39 1
  16   10   11 2
  17   10   36 1
  18   12   13 1
  19   12   40 1
  20   12   41 1
  21   13   14 1
  22   13   42 1
  23   13   43 1
  24   14   15 1
  25   15   44 1
  26   15   45 1
  27   15   46 1
  28   16   17 1
  29   16   47 1
  30   16   48 1
  31   17   18 ar
  32   17   22 ar
  33   18   19 ar
  34   18   24 1
  35   19   20 ar
  36   19   49 1
  37   20   21 ar
  38   20   50 1
  39   21   22 ar
  40   21   23 1
  41   22   51 1
  42   23   25 ar
  43   23   29 ar
  44   25   26 ar
  45   25   52 1
  46   26   27 ar
  47   26   30 1
  48   27   28 ar
  49   27   53 1
  50   28   29 ar
  51   28   54 1
  52   29   55 1
  53   30   31 1
  54   30   56 1
  55   30   57 1
  56   31   32 1
  57   31   33 1
  58   32   35 1
  59   32   58 1
  60   32   59 1
  61   33   34 1
  62   33   60 1
  63   33   61 1
  64   34   35 1
  65   34   62 1
  66   34   63 1
  67   35   64 1
  68   35   65 1
  69   36   37 1
  70   37   66 1
  71   37   67 1
  72   37   68 1

#	End of record

