#	Name: ASD03430789
#	Creating user name:	WinNT
#	Creation time:	15. 06. 2019 20:41

#	Modifying user name:	WinNT
#	Modification time:	15. 06. 2019 20:41

#	Program:	/corina/corina34_cracker 3.40 0067  02.08.2006

@<TRIPOS>MOLECULE
ASD03430789
  30   34    0    0    0
SMALL
NO_CHARGES


@<TRIPOS>ATOM
   1 C1            -0.0181     1.4806     0.0102 C.ar    
   2 C2             0.0021    -0.0041     0.0020 C.ar    
   3 C3             1.2413    -0.6658    -0.0150 C.ar    
   4 C4             2.4083     0.0439    -0.0072 C.ar    
   5 C5             2.3982     1.4584    -0.0069 C.ar    
   6 C6             1.2549     2.1796     0.0018 C.ar    
   7 C7             1.6136    -2.1250    -0.0578 C.3     
   8 C8             3.1009    -2.0955    -0.4352 C.3     
   9 C9             0.5177    -3.8707     0.9774 C.ar    
  10 C10            1.3829    -2.8143     1.2538 C.ar    
  11 C11            0.7987    -2.8912    -1.0596 C.2     
  12 N12            0.1956    -3.8882    -0.3818 N.am    
  13 O13            0.7017    -2.6583    -2.2459 O.2     
  14 C14            1.8353    -2.5972     2.5357 C.ar    
  15 C15            1.4345    -3.4328     3.5635 C.ar    
  16 C16            0.5782    -4.4858     3.3001 C.ar    
  17 C17            0.1198    -4.7063     2.0176 C.ar    
  18 O18            3.4952    -0.7851     0.0124 O.3     
  19 N19           -1.2740    -0.3071     0.0134 N.2     
  20 O20           -1.9261     0.7178     0.0249 O.3     
  21 N21           -1.2959     1.7568     0.0189 N.2     
  22 H22            3.3420     1.9834    -0.0133 H       
  23 H23            1.2877     3.2591     0.0021 H       
  24 H24            3.6530    -2.8710     0.0958 H       
  25 H25            3.2314    -2.1947    -1.5128 H       
  26 H26           -0.3931    -4.5420    -0.7903 H       
  27 H27            2.5041    -1.7740     2.7395 H       
  28 H28            1.7901    -3.2629     4.5690 H       
  29 H29            0.2664    -5.1385     4.1020 H       
  30 H30           -0.5501    -5.5301     1.8198 H       
@<TRIPOS>BOND
   1    1    2 ar
   2    1    6 ar
   3    1   21 2
   4    2    3 ar
   5    2   19 2
   6    3    4 ar
   7    3    7 1
   8    4    5 ar
   9    4   18 1
  10    5    6 ar
  11    5   22 1
  12    6   23 1
  13    7    8 1
  14    7   10 1
  15    7   11 1
  16    8   18 1
  17    8   24 1
  18    8   25 1
  19    9   10 ar
  20    9   12 1
  21    9   17 ar
  22   10   14 ar
  23   11   12 am
  24   11   13 2
  25   12   26 1
  26   14   15 ar
  27   14   27 1
  28   15   16 ar
  29   15   28 1
  30   16   17 ar
  31   16   29 1
  32   17   30 1
  33   19   20 1
  34   20   21 1

#	End of record

