#	Name: ASD05430264
#	Creating user name:	WinNT
#	Creation time:	15. 06. 2019 21:00

#	Modifying user name:	WinNT
#	Modification time:	15. 06. 2019 21:00

#	Program:	/corina/corina34_cracker 3.40 0067  02.08.2006

@<TRIPOS>MOLECULE
ASD05430264
  63   69    0    0    0
SMALL
NO_CHARGES


@<TRIPOS>ATOM
   1 C1             0.0642     1.1600     0.4243 C.ar    
   2 C2             0.0197    -0.0127    -0.3264 C.ar    
   3 C3             1.1612    -0.4727    -0.9678 C.ar    
   4 C4             2.3504     0.2224    -0.8708 C.ar    
   5 C5             2.4186     1.3996    -0.1242 C.ar    
   6 C6             1.2627     1.8750     0.5315 C.ar    
   7 C7             4.8768    -0.0392     0.2061 C.3     
   8 C8             4.8514     1.4670     0.0664 C.2     
   9 C9             3.6839     2.1380    -0.0211 C.2     
  10 C10            6.2137    -0.4733     0.8141 C.3     
  11 C11            6.9060     0.5528     1.7183 C.3     
  12 N12            7.1140     1.7867     0.9574 N.pl3   
  13 C13            6.1381     2.1770     0.0295 C.2     
  14 N14           -1.1798    -0.7293    -0.4338 N.pl3   
  15 C15           -1.7597    -1.1786    -1.5919 C.2     
  16 C16           -2.8932    -1.8146    -1.2393 C.2     
  17 N17           -3.0070    -1.7583     0.0959 N.2     
  18 C18           -1.9843    -1.1152     0.5903 C.2     
  19 C19           -3.8657    -2.4754    -2.1820 C.3     
  20 O20           -0.8497     1.8427     1.1493 O.3     
  21 C21           -0.2465     2.9229     1.6693 C.2     
  22 C22            6.3686    -1.9502     1.1856 C.3     
  23 C23            7.1083    -1.3849    -0.0283 C.3     
  24 N24            1.0036     2.9537     1.3128 N.2     
  25 C25            8.2922     2.6280     1.1664 C.3     
  26 C26            8.7844     3.1367    -0.1933 C.3     
  27 N27            7.6525     3.6798    -0.9481 N.pl3   
  28 N28            6.3811     3.1046    -0.8438 N.2     
  29 C29            7.8538     4.8382    -1.8221 C.3     
  30 C30            7.9275     3.7992     2.0419 C.ar    
  31 C31            8.8053     4.2318     3.0174 C.ar    
  32 C32            8.4706     5.3081     3.8222 C.ar    
  33 C33            7.2567     5.9501     3.6483 C.ar    
  34 C34            6.3793     5.5160     2.6709 C.ar    
  35 C35            6.7174     4.4437     1.8647 C.ar    
  36 F36            9.3282     5.7308     4.7767 F       
  37 Cl37           4.8564     6.3200     2.4524 Cl      
  38 H38            1.1192    -1.3828    -1.5477 H       
  39 H39            3.2315    -0.1467    -1.3745 H       
  40 H40            4.0617    -0.3575     0.8560 H       
  41 H41            4.7584    -0.4972    -0.7759 H       
  42 H42            3.6800     3.2179    -0.0155 H       
  43 H43            6.2775     0.7592     2.5846 H       
  44 H44            7.8679     0.1598     2.0473 H       
  45 H45           -1.3806    -1.0473    -2.5946 H       
  46 H46           -1.8102    -0.9175     1.6377 H       
  47 H47           -3.5796    -3.5171    -2.3277 H       
  48 H48           -4.8693    -2.4300    -1.7594 H       
  49 H49           -3.8514    -1.9572    -3.1408 H       
  50 H50           -0.7288     3.6585     2.2960 H       
  51 H51            6.9601    -2.1874     2.0699 H       
  52 H52            5.5205    -2.6083     0.9967 H       
  53 H53            6.7470    -1.6713    -1.0160 H       
  54 H54            8.1865    -1.2503     0.0572 H       
  55 H55            9.0784     2.0434     1.6441 H       
  56 H56            9.5286     3.9185    -0.0413 H       
  57 H57            9.2308     2.3127    -0.7499 H       
  58 H58            8.1240     4.4968    -2.8214 H       
  59 H59            6.9330     5.4192    -1.8732 H       
  60 H60            8.6543     5.4605    -1.4219 H       
  61 H61            9.7523     3.7305     3.1526 H       
  62 H62            6.9946     6.7892     4.2756 H       
  63 H63            6.0322     4.1050     1.1017 H       
@<TRIPOS>BOND
   1    1    2 ar
   2    1    6 ar
   3    1   20 1
   4    2    3 ar
   5    2   14 1
   6    3    4 ar
   7    3   38 1
   8    4    5 ar
   9    4   39 1
  10    5    6 ar
  11    5    9 1
  12    6   24 1
  13    7    8 1
  14    7   10 1
  15    7   40 1
  16    7   41 1
  17    8    9 2
  18    8   13 1
  19    9   42 1
  20   10   11 1
  21   10   22 1
  22   10   23 1
  23   11   12 1
  24   11   43 1
  25   11   44 1
  26   12   13 1
  27   12   25 1
  28   13   28 2
  29   14   15 1
  30   14   18 1
  31   15   16 2
  32   15   45 1
  33   16   17 1
  34   16   19 1
  35   17   18 2
  36   18   46 1
  37   19   47 1
  38   19   48 1
  39   19   49 1
  40   20   21 1
  41   21   24 2
  42   21   50 1
  43   22   23 1
  44   22   51 1
  45   22   52 1
  46   23   53 1
  47   23   54 1
  48   25   26 1
  49   25   30 1
  50   25   55 1
  51   26   27 1
  52   26   56 1
  53   26   57 1
  54   27   28 1
  55   27   29 1
  56   29   58 1
  57   29   59 1
  58   29   60 1
  59   30   31 ar
  60   30   35 ar
  61   31   32 ar
  62   31   61 1
  63   32   33 ar
  64   32   36 1
  65   33   34 ar
  66   33   62 1
  67   34   35 ar
  68   34   37 1
  69   35   63 1

#	End of record

