#	Name: ASD08070433
#	Creating user name:	WinNT
#	Creation time:	15. 06. 2019 21:14

#	Modifying user name:	WinNT
#	Modification time:	15. 06. 2019 21:14

#	Program:	/corina/corina34_cracker 3.40 0067  02.08.2006

@<TRIPOS>MOLECULE
ASD08070433
  43   44    0    0    0
SMALL
NO_CHARGES


@<TRIPOS>ATOM
   1 O1            -0.0162     1.3453     0.0094 O.3     
   2 C2             0.0021    -0.0041     0.0020 C.2     
   3 C3             1.2863    -0.4454    -0.0126 C.2     
   4 C4             2.1262     0.7519    -0.0142 C.ar    
   5 C5             1.2359     1.8422     0.0002 C.ar    
   6 C6             3.5050     0.9740    -0.0255 C.ar    
   7 C7             3.9850     2.2535    -0.0226 C.ar    
   8 C8             3.1117     3.3322    -0.0084 C.ar    
   9 C9             1.7477     3.1344     0.0031 C.ar    
  10 C10           -1.1884    -0.8661     0.0092 C.2     
  11 O11           -1.0632    -2.0761     0.0019 O.2     
  12 N12           -2.4187    -0.3159     0.0239 N.am    
  13 C13            5.4725     2.4949    -0.0343 C.3     
  14 C14           -5.6503     0.6230     2.7532 C.3     
  15 C15           -4.4765    -0.1337     2.1284 C.3     
  16 C16           -4.7791    -0.4183     0.6559 C.3     
  17 C17           -3.6052    -1.1751     0.0311 C.3     
  18 C18           -3.9585    -1.5688    -1.4046 C.3     
  19 C19           -2.8375    -2.4317    -1.9873 C.3     
  20 C20           -3.1907    -2.8254    -3.4230 C.3     
  21 H21            1.6199    -1.4726    -0.0210 H       
  22 H22            4.1889     0.1382    -0.0362 H       
  23 H23            3.5054     4.3379    -0.0059 H       
  24 H24            1.0780     3.9816     0.0137 H       
  25 H25           -2.5184     0.6489     0.0297 H       
  26 H26            5.8221     2.5589    -1.0647 H       
  27 H27            5.6931     3.4287     0.4829 H       
  28 H28            5.9781     1.6717     0.4705 H       
  29 H29           -5.4348     0.8258     3.8023 H       
  30 H30           -5.7986     1.5644     2.2242 H       
  31 H31           -6.5539     0.0179     2.6783 H       
  32 H32           -3.5730     0.4713     2.2033 H       
  33 H33           -4.3282    -1.0751     2.6574 H       
  34 H34           -5.6826    -1.0234     0.5810 H       
  35 H35           -4.9273     0.5231     0.1269 H       
  36 H36           -3.4002    -2.0729     0.6140 H       
  37 H37           -4.8907    -2.1337    -1.4075 H       
  38 H38           -4.0766    -0.6697    -2.0093 H       
  39 H39           -1.9053    -1.8668    -1.9844 H       
  40 H40           -2.7194    -3.3308    -1.3826 H       
  41 H41           -2.3921    -3.4402    -3.8381 H       
  42 H42           -4.1229    -3.3903    -3.4259 H       
  43 H43           -3.3088    -1.9263    -4.0277 H       
@<TRIPOS>BOND
   1    1    2 1
   2    1    5 1
   3    2    3 2
   4    2   10 1
   5    3    4 1
   6    3   21 1
   7    4    5 ar
   8    4    6 ar
   9    5    9 ar
  10    6    7 ar
  11    6   22 1
  12    7    8 ar
  13    7   13 1
  14    8    9 ar
  15    8   23 1
  16    9   24 1
  17   10   11 2
  18   10   12 am
  19   12   17 1
  20   12   25 1
  21   13   26 1
  22   13   27 1
  23   13   28 1
  24   14   15 1
  25   14   29 1
  26   14   30 1
  27   14   31 1
  28   15   16 1
  29   15   32 1
  30   15   33 1
  31   16   17 1
  32   16   34 1
  33   16   35 1
  34   17   18 1
  35   17   36 1
  36   18   19 1
  37   18   37 1
  38   18   38 1
  39   19   20 1
  40   19   39 1
  41   19   40 1
  42   20   41 1
  43   20   42 1
  44   20   43 1

#	End of record

