#	Name: ASD03570052
#	Creating user name:	WinNT
#	Creation time:	15. 06. 2019 20:43

#	Modifying user name:	WinNT
#	Modification time:	15. 06. 2019 20:43

#	Program:	/corina/corina34_cracker 3.40 0067  02.08.2006

@<TRIPOS>MOLECULE
ASD03570052
  53   56    0    0    0
SMALL
NO_CHARGES


@<TRIPOS>ATOM
   1 C1            -0.0205     1.4005    -0.0607 C.ar    
   2 C2            -0.0114     0.0181    -0.0493 C.ar    
   3 C3             1.1880    -0.6692    -0.0265 C.ar    
   4 C4             2.3868     0.0285    -0.0149 C.ar    
   5 C5             2.3772     1.4236    -0.0263 C.ar    
   6 C6             1.1699     2.1042    -0.0492 C.ar    
   7 N7             3.6017    -0.6646     0.0087 N.pl3   
   8 C8             5.5598    -1.5089    -1.1481 C.ar    
   9 N9             6.2669    -1.6418     0.0492 N.3     
  10 C10            5.7485    -0.7863     1.1225 C.3     
  11 C11            4.2425    -1.0372     1.2814 C.3     
  12 C12            4.2508    -1.0351    -1.1804 C.ar    
  13 C13            3.5780    -0.9244    -2.3881 C.ar    
  14 C14            4.2084    -1.2807    -3.5658 C.ar    
  15 C15            5.5098    -1.7471    -3.5392 C.ar    
  16 C16            6.1848    -1.8616    -2.3396 C.ar    
  17 C17            7.7035    -1.4170    -0.1601 C.3     
  18 N18            3.5849     2.1349    -0.0142 N.am    
  19 C19            3.6235     3.3888     0.4783 C.2     
  20 N20            4.7989     4.0426     0.5656 N.am    
  21 O21            2.5980     3.9303     0.8439 O.2     
  22 C22            4.8277     5.3790     0.9867 C.ar    
  23 C23            3.9631     7.1392     2.3669 C.ar    
  24 C24            3.9338     5.8224     1.9520 C.ar    
  25 C25            5.7540     6.2586     0.4429 C.ar    
  26 C26            5.7822     7.5752     0.8586 C.ar    
  27 C27            4.8854     8.0189     1.8194 C.ar    
  28 O28            4.9137     9.3154     2.2283 O.3     
  29 C29            5.8892    10.1657     1.6222 C.3     
  30 F30            5.6737    10.2119     0.2407 F       
  31 F31            5.7796    11.4547     2.1547 F       
  32 F32            7.1695     9.6628     1.8779 F       
  33 H33           -0.9602     1.9325    -0.0831 H       
  34 H34           -0.9440    -0.5266    -0.0580 H       
  35 H35            1.1915    -1.7491    -0.0173 H       
  36 H36            1.1589     3.1841    -0.0584 H       
  37 H37            6.2616    -1.0204     2.0552 H       
  38 H38            5.9145     0.2602     0.8667 H       
  39 H39            3.8471    -0.4225     2.0899 H       
  40 H40            4.0622    -2.0912     1.4930 H       
  41 H41            2.5615    -0.5602    -2.4085 H       
  42 H42            3.6844    -1.1951    -4.5062 H       
  43 H43            6.0009    -2.0229    -4.4607 H       
  44 H44            7.2012    -2.2266    -2.3267 H       
  45 H45            7.8556    -0.4380    -0.6145 H       
  46 H46            8.2209    -1.4570     0.7984 H       
  47 H47            8.0998    -2.1892    -0.8194 H       
  48 H48            4.3929     1.7246    -0.3603 H       
  49 H49            5.6248     3.5882     0.3369 H       
  50 H50            3.2676     7.4843     3.1176 H       
  51 H51            3.2155     5.1377     2.3782 H       
  52 H52            6.4526     5.9133    -0.3049 H       
  53 H53            6.5030     8.2595     0.4360 H       
@<TRIPOS>BOND
   1    1    2 ar
   2    1    6 ar
   3    1   33 1
   4    2    3 ar
   5    2   34 1
   6    3    4 ar
   7    3   35 1
   8    4    5 ar
   9    4    7 1
  10    5    6 ar
  11    5   18 1
  12    6   36 1
  13    7   12 1
  14    7   11 1
  15    8    9 1
  16    8   12 ar
  17    8   16 ar
  18    9   10 1
  19    9   17 1
  20   10   11 1
  21   10   37 1
  22   10   38 1
  23   11   39 1
  24   11   40 1
  25   12   13 ar
  26   13   14 ar
  27   13   41 1
  28   14   15 ar
  29   14   42 1
  30   15   16 ar
  31   15   43 1
  32   16   44 1
  33   17   45 1
  34   17   46 1
  35   17   47 1
  36   18   19 am
  37   18   48 1
  38   19   20 am
  39   19   21 2
  40   20   22 1
  41   20   49 1
  42   22   25 ar
  43   22   24 ar
  44   23   24 ar
  45   23   27 ar
  46   23   50 1
  47   24   51 1
  48   25   26 ar
  49   25   52 1
  50   26   27 ar
  51   26   53 1
  52   27   28 1
  53   28   29 1
  54   29   30 1
  55   29   31 1
  56   29   32 1

#	End of record

