#	Name: ASD03240966
#	Creating user name:	WinNT
#	Creation time:	15. 06. 2019 20:35

#	Modifying user name:	WinNT
#	Modification time:	15. 06. 2019 20:35

#	Program:	/corina/corina34_cracker 3.40 0067  02.08.2006

@<TRIPOS>MOLECULE
ASD03240966
  59   64    0    0    0
SMALL
NO_CHARGES


@<TRIPOS>ATOM
   1 N1             0.0608     1.2776    -0.3624 N.pl3   
   2 C2             0.1013    -0.0820    -0.2016 C.2     
   3 N3             1.2427    -0.7154     0.1218 N.2     
   4 C4             2.3661    -0.0695     0.2984 C.2     
   5 C5             2.3998     1.3377     0.1486 C.ar    
   6 C6             3.5881     2.0676     0.3307 C.ar    
   7 C7             3.5352     3.4549     0.1645 C.ar    
   8 C8             2.3108     4.0565    -0.1739 C.ar    
   9 N9             1.2117     3.3336    -0.3370 N.ar    
  10 C10            1.2132     2.0196    -0.1902 C.ar    
  11 C11           -1.1832    -0.5508    -0.4330 C.2     
  12 C12           -1.9850     0.5440    -0.7326 C.2     
  13 N13           -1.2531     1.6317    -0.6871 N.2     
  14 O14            4.7473     1.4462     0.6573 O.3     
  15 C15            4.7533     4.2797     0.3431 C.ar    
  16 C16            5.8140     4.1650    -0.5546 C.ar    
  17 C17            6.9456     4.9360    -0.3834 C.ar    
  18 C18            7.0288     5.8214     0.6762 C.ar    
  19 C19            5.9796     5.9396     1.5701 C.ar    
  20 C20            4.8408     5.1777     1.4061 C.ar    
  21 C21           -3.4568     0.4909    -1.0519 C.3     
  22 C22            2.2474     5.5256    -0.3512 C.ar    
  23 C23            1.1942     6.2530     0.2032 C.ar    
  24 C24            1.1410     7.6214     0.0350 C.ar    
  25 C25            2.1291     8.2721    -0.6821 C.ar    
  26 C26            3.1762     7.5562    -1.2343 C.ar    
  27 C27            3.2437     6.1880    -1.0682 C.ar    
  28 C28            2.0643     9.7668    -0.8628 C.3     
  29 C29            3.4448    10.4323    -0.9901 C.3     
  30 C30            2.8252    11.3292    -2.0747 C.3     
  31 C31            1.8083    10.2011    -2.3156 C.3     
  32 C32            2.1986    12.6122    -1.5249 C.3     
  33 O33            3.6919    11.5655    -3.1860 O.3     
  34 N34            1.1823    10.4229     0.1116 N.3     
  35 H35            3.2654    -0.6082     0.5580 H       
  36 H36           -1.5028    -1.5815    -0.3890 H       
  37 H37            5.2739     1.1700    -0.1052 H       
  38 H38            5.7503     3.4738    -1.3820 H       
  39 H39            7.7680     4.8478    -1.0778 H       
  40 H40            7.9165     6.4226     0.8064 H       
  41 H41            6.0503     6.6323     2.3957 H       
  42 H42            4.0206     5.2737     2.1022 H       
  43 H43           -4.0321     0.5896    -0.1313 H       
  44 H44           -3.7114     1.3065    -1.7286 H       
  45 H45           -3.6915    -0.4618    -1.5266 H       
  46 H46            0.4219     5.7460     0.7626 H       
  47 H47            0.3260     8.1857     0.4637 H       
  48 H48            3.9446     8.0697    -1.7931 H       
  49 H49            4.0639     5.6308    -1.4959 H       
  50 H50            3.7514    10.9761    -0.0965 H       
  51 H51            4.2189     9.7635    -1.3663 H       
  52 H52            2.1350     9.4691    -3.0542 H       
  53 H53            0.7937    10.5582    -2.4922 H       
  54 H54            2.9618    13.1994    -1.0142 H       
  55 H55            1.7819    13.1942    -2.3469 H       
  56 H56            1.4056    12.3569    -0.8219 H       
  57 H57            3.3078    12.1290    -3.8716 H       
  58 H58            0.2896     9.9556     0.1634 H       
  59 H59            1.6189    10.4702     1.0201 H       
@<TRIPOS>BOND
   1    1    2 1
   2    1   10 1
   3    1   13 1
   4    2    3 1
   5    2   11 2
   6    3    4 2
   7    4    5 1
   8    4   35 1
   9    5    6 ar
  10    5   10 ar
  11    6    7 ar
  12    6   14 1
  13    7    8 ar
  14    7   15 1
  15    8    9 ar
  16    8   22 1
  17    9   10 ar
  18   11   12 1
  19   11   36 1
  20   12   13 2
  21   12   21 1
  22   14   37 1
  23   15   16 ar
  24   15   20 ar
  25   16   17 ar
  26   16   38 1
  27   17   18 ar
  28   17   39 1
  29   18   19 ar
  30   18   40 1
  31   19   20 ar
  32   19   41 1
  33   20   42 1
  34   21   43 1
  35   21   44 1
  36   21   45 1
  37   22   23 ar
  38   22   27 ar
  39   23   24 ar
  40   23   46 1
  41   24   25 ar
  42   24   47 1
  43   25   26 ar
  44   25   28 1
  45   26   27 ar
  46   26   48 1
  47   27   49 1
  48   28   29 1
  49   28   31 1
  50   28   34 1
  51   29   30 1
  52   29   50 1
  53   29   51 1
  54   30   31 1
  55   30   32 1
  56   30   33 1
  57   31   52 1
  58   31   53 1
  59   32   54 1
  60   32   55 1
  61   32   56 1
  62   33   57 1
  63   34   58 1
  64   34   59 1

#	End of record

