#	Name: ASD01148489
#	Creating user name:	WinNT
#	Creation time:	15. 06. 2019 19:02

#	Modifying user name:	WinNT
#	Modification time:	15. 06. 2019 19:02

#	Program:	/corina/corina34_cracker 3.40 0067  02.08.2006

@<TRIPOS>MOLECULE
ASD01148489
  55   59    0    0    0
SMALL
NO_CHARGES


@<TRIPOS>ATOM
   1 C1            -0.0180     1.4351     0.0450 C.ar    
   2 C2            -0.0166     0.0527     0.0405 C.ar    
   3 C3             1.1811    -0.6372     0.0175 C.ar    
   4 C4             2.3774     0.0553    -0.0013 C.ar    
   5 C5             2.3760     1.4376     0.0023 C.ar    
   6 C6             1.1783     2.1275     0.0267 C.ar    
   7 C7             3.6801     2.1925    -0.0178 C.3     
   8 O8             4.6901     1.4587    -0.7394 O.3     
   9 C9             3.5608     3.4817    -0.8651 C.3     
  10 C10            4.0473     3.0268    -2.2280 C.2     
  11 N11            4.6600     1.8982    -2.0830 N.2     
  12 C12            3.8539     3.7470    -3.4982 C.ar    
  13 C13            4.3769     3.1929    -4.7446 C.ar    
  14 C14            3.1685     4.9538    -3.5196 C.ar    
  15 C15            2.9720     5.6511    -4.6984 C.ar    
  16 C16            3.4516     5.1741    -5.9103 C.ar    
  17 C17            4.1759     3.9061    -5.9500 C.ar    
  18 C18            3.2267     5.9393    -7.1502 C.2     
  19 O19            3.7383     5.5742    -8.1913 O.2     
  20 N20            2.4542     7.0435    -7.1300 N.am    
  21 C21            4.1465     2.5120     1.4040 C.3     
  22 F22            4.3114     1.3212     2.1194 F       
  23 F23            5.3649     3.1975     1.3521 F       
  24 F24            3.1894     3.3097     2.0405 F       
  25 C25            2.2308     7.8039    -8.3621 C.3     
  26 C26            1.3389     8.9830    -8.0699 C.ar    
  27 N27            0.0297     8.8269    -8.0752 N.ar    
  28 C28           -0.7894     9.8299    -7.8252 C.ar    
  29 C29           -0.2982    11.0911    -7.5471 C.ar    
  30 C30            1.0736    11.2940    -7.5326 C.ar    
  31 C31            1.9030    10.2145    -7.7941 C.ar    
  32 C32            5.0695     1.9756    -4.7711 C.ar    
  33 C33            4.6771     3.3864    -7.1502 C.ar    
  34 C34            5.5403     1.4947    -5.9566 C.ar    
  35 C35            5.3470     2.1990    -7.1420 C.ar    
  36 H36           -0.9537     1.9741     0.0584 H       
  37 H37           -0.9512    -0.4882     0.0552 H       
  38 H38            1.1822    -1.7172     0.0147 H       
  39 H39            3.3131    -0.4837    -0.0185 H       
  40 H40            1.1772     3.2075     0.0291 H       
  41 H41            2.5247     3.8166    -0.9161 H       
  42 H42            4.2033     4.2671    -0.4673 H       
  43 H43            2.7799     5.3570    -2.5962 H       
  44 H44            2.4333     6.5869    -4.6750 H       
  45 H45            2.0462     7.3348    -6.2995 H       
  46 H46            3.1864     8.1581    -8.7488 H       
  47 H47            1.7541     7.1626    -9.1034 H       
  48 H48           -1.8564     9.6636    -7.8385 H       
  49 H49           -0.9740    11.9087    -7.3439 H       
  50 H50            1.4860    12.2690    -7.3187 H       
  51 H51            2.9761    10.3360    -7.7907 H       
  52 H52            5.2298     1.4217    -3.8579 H       
  53 H53            4.5334     3.9228    -8.0765 H       
  54 H54            6.0742     0.5561    -5.9761 H       
  55 H55            5.7330     1.7991    -8.0680 H       
@<TRIPOS>BOND
   1    1    2 ar
   2    1    6 ar
   3    1   36 1
   4    2    3 ar
   5    2   37 1
   6    3    4 ar
   7    3   38 1
   8    4    5 ar
   9    4   39 1
  10    5    6 ar
  11    5    7 1
  12    6   40 1
  13    7    8 1
  14    7    9 1
  15    7   21 1
  16    8   11 1
  17    9   10 1
  18    9   41 1
  19    9   42 1
  20   10   11 2
  21   10   12 1
  22   12   13 ar
  23   12   14 ar
  24   13   32 ar
  25   13   17 ar
  26   14   15 ar
  27   14   43 1
  28   15   16 ar
  29   15   44 1
  30   16   17 ar
  31   16   18 1
  32   17   33 ar
  33   18   19 2
  34   18   20 am
  35   20   25 1
  36   20   45 1
  37   21   22 1
  38   21   23 1
  39   21   24 1
  40   25   26 1
  41   25   46 1
  42   25   47 1
  43   26   27 ar
  44   26   31 ar
  45   27   28 ar
  46   28   29 ar
  47   28   48 1
  48   29   30 ar
  49   29   49 1
  50   30   31 ar
  51   30   50 1
  52   31   51 1
  53   32   34 ar
  54   32   52 1
  55   33   35 ar
  56   33   53 1
  57   34   35 ar
  58   34   54 1
  59   35   55 1

#	End of record

