#	Name: ASD03082066
#	Creating user name:	WinNT
#	Creation time:	15. 06. 2019 20:27

#	Modifying user name:	WinNT
#	Modification time:	15. 06. 2019 20:27

#	Program:	/corina/corina34_cracker 3.40 0067  02.08.2006

@<TRIPOS>MOLECULE
ASD03082066
  66   69    0    0    0
SMALL
NO_CHARGES


@<TRIPOS>ATOM
   1 C1            -0.0176     1.4478     0.0100 C.3     
   2 O2             0.0021    -0.0041     0.0020 O.3     
   3 C3            -1.1901    -0.6321     0.0100 C.2     
   4 C4            -1.2473    -2.1054     0.0027 C.ar    
   5 O5            -2.2179     0.0157     0.0233 O.2     
   6 C6            -0.0682    -2.8542    -0.0126 C.ar    
   7 C7            -0.1286    -4.2314    -0.0190 C.ar    
   8 C8            -1.3536    -4.8776    -0.0103 C.ar    
   9 C9            -2.5275    -4.1501     0.0044 C.ar    
  10 C10           -2.4861    -2.7636     0.0168 C.ar    
  11 N11           -3.6720    -2.0264     0.0316 N.am    
  12 C12           -4.2797    -1.6543     1.1650 C.2     
  13 C13           -5.5313    -0.8745     0.8260 C.3     
  14 C14           -5.5418    -0.8604    -0.7162 C.3     
  15 C15           -4.2919    -1.6288    -1.0864 C.2     
  16 O16           -3.8892    -1.9029     2.2854 O.2     
  17 O17           -3.9154    -1.8548    -2.2163 O.2     
  18 C18            1.4178     1.9774    -0.0009 C.3     
  19 C19            2.0960     1.5891    -1.3176 C.3     
  20 C20            3.5108     2.1738    -1.3457 C.3     
  21 C21            3.4332     3.6929    -1.1776 C.3     
  22 N22            2.7773     4.0127     0.0968 N.3     
  23 C23            1.4008     3.5022     0.1283 C.3     
  24 C24            2.8087     5.4582     0.3568 C.3     
  25 C25            1.9534     6.1825    -0.6846 C.3     
  26 C26           -6.7727    -1.5872     1.3664 C.3     
  27 O27            0.5856     5.7997    -0.5273 O.3     
  28 C28           -0.3132     6.3572    -1.3807 C.ar    
  29 C29           -1.6580     6.0302    -1.2844 C.ar    
  30 C30           -2.5696     6.5982    -2.1531 C.ar    
  31 C31           -2.1427     7.4918    -3.1180 C.ar    
  32 C32           -0.8029     7.8189    -3.2164 C.ar    
  33 C33            0.1118     7.2584    -2.3460 C.ar    
  34 C34           -3.1394     8.1099    -4.0644 C.3     
  35 H35           -0.5448     1.8089    -0.8731 H       
  36 H36           -0.5278     1.7993     0.9068 H       
  37 H37            0.8894    -2.3549    -0.0198 H       
  38 H38            0.7837    -4.8092    -0.0311 H       
  39 H39           -1.3911    -5.9569    -0.0153 H       
  40 H40           -3.4788    -4.6614     0.0104 H       
  41 H41           -5.4691     0.1405     1.2185 H       
  42 H42           -6.4313    -1.3611    -1.0984 H       
  43 H43           -5.4847     0.1616    -1.0909 H       
  44 H44            1.9708     1.5470     0.8341 H       
  45 H45            2.1491     0.5030    -1.3936 H       
  46 H46            1.5211     1.9860    -2.1543 H       
  47 H47            4.0972     1.7471    -0.5319 H       
  48 H48            3.9837     1.9368    -2.2988 H       
  49 H49            4.4399     4.1108    -1.1828 H       
  50 H50            2.8584     4.1203    -1.9992 H       
  51 H51            0.8355     3.9305    -0.6994 H       
  52 H52            0.9313     3.7816     1.0715 H       
  53 H53            2.4137     5.6568     1.3531 H       
  54 H54            3.8365     5.8161     0.2955 H       
  55 H55            2.0474     7.2596    -0.5465 H       
  56 H56            2.2932     5.9133    -1.6847 H       
  57 H57           -6.7084    -1.6557     2.4523 H       
  58 H58           -7.6641    -1.0241     1.0899 H       
  59 H59           -6.8299    -2.5895     0.9418 H       
  60 H60           -1.9918     5.3320    -0.5311 H       
  61 H61           -3.6166     6.3437    -2.0788 H       
  62 H62           -0.4719     8.5166    -3.9713 H       
  63 H63            1.1582     7.5142    -2.4232 H       
  64 H64           -3.5216     9.0362    -3.6355 H       
  65 H65           -2.6526     8.3238    -5.0160 H       
  66 H66           -3.9649     7.4167    -4.2264 H       
@<TRIPOS>BOND
   1    1    2 1
   2    1   18 1
   3    1   35 1
   4    1   36 1
   5    2    3 1
   6    3    4 1
   7    3    5 2
   8    4    6 ar
   9    4   10 ar
  10    6    7 ar
  11    6   37 1
  12    7    8 ar
  13    7   38 1
  14    8    9 ar
  15    8   39 1
  16    9   10 ar
  17    9   40 1
  18   10   11 1
  19   11   12 am
  20   11   15 am
  21   12   13 1
  22   12   16 2
  23   13   14 1
  24   13   26 1
  25   13   41 1
  26   14   15 1
  27   14   42 1
  28   14   43 1
  29   15   17 2
  30   18   19 1
  31   18   23 1
  32   18   44 1
  33   19   20 1
  34   19   45 1
  35   19   46 1
  36   20   21 1
  37   20   47 1
  38   20   48 1
  39   21   22 1
  40   21   49 1
  41   21   50 1
  42   22   23 1
  43   22   24 1
  44   23   51 1
  45   23   52 1
  46   24   25 1
  47   24   53 1
  48   24   54 1
  49   25   27 1
  50   25   55 1
  51   25   56 1
  52   26   57 1
  53   26   58 1
  54   26   59 1
  55   27   28 1
  56   28   29 ar
  57   28   33 ar
  58   29   30 ar
  59   29   60 1
  60   30   31 ar
  61   30   61 1
  62   31   32 ar
  63   31   34 1
  64   32   33 ar
  65   32   62 1
  66   33   63 1
  67   34   64 1
  68   34   65 1
  69   34   66 1

#	End of record

