#	Name: ASD01208043
#	Creating user name:	WinNT
#	Creation time:	15. 06. 2019 19:09

#	Modifying user name:	WinNT
#	Modification time:	15. 06. 2019 19:09

#	Program:	/corina/corina34_cracker 3.40 0067  02.08.2006

@<TRIPOS>MOLECULE
ASD01208043
  57   60    0    0    0
SMALL
NO_CHARGES


@<TRIPOS>ATOM
   1 C1            -0.0889     1.4346     0.0256 C.ar    
   2 C2             0.0149     0.0518    -0.0167 C.ar    
   3 C3            -1.1274    -0.7356     0.0267 C.ar    
   4 C4            -2.3762    -0.1432     0.1126 C.ar    
   5 C5            -2.4851     1.2477     0.1558 C.ar    
   6 C6            -1.3336     2.0353     0.1172 C.ar    
   7 C7            -3.8154     1.8843     0.2469 C.2     
   8 C8            -4.0563     3.2273     0.2958 C.2     
   9 N9            -5.0173     1.2271     0.2907 N.pl3   
  10 C10           -6.0216     2.1606     0.3737 C.2     
  11 C11           -5.4395     3.4093     0.3778 C.2     
  12 O12            1.0328     2.2008    -0.0172 O.3     
  13 C13            0.8492     3.6158    -0.0952 C.3     
  14 C14            2.0805     4.2550    -0.7404 C.3     
  15 O15            3.2147     4.0671     0.1082 O.3     
  16 C16            0.6585     4.1837     1.3127 C.3     
  17 O17           -1.0201    -2.0895    -0.0155 O.3     
  18 C18           -1.4892    -2.7320    -1.1152 C.ar    
  19 C19           -1.5230    -4.1237    -1.1450 C.ar    
  20 C20           -1.9398    -1.9992    -2.2062 C.ar    
  21 C21           -2.4176    -2.6468    -3.3241 C.ar    
  22 C22           -2.4488    -4.0434    -3.3613 C.ar    
  23 C23           -1.9993    -4.7789    -2.2602 C.ar    
  24 C24           -2.9597    -4.7398    -4.5566 C.2     
  25 O25           -2.9890    -6.0865    -4.5907 O.3     
  26 O26           -3.3542    -4.0992    -5.5107 O.2     
  27 C27           -7.4631     1.8773     0.4420 C.2     
  28 C28            4.4240     4.6299    -0.4047 C.3     
  29 N29           -8.4085     2.7738     0.5206 N.2     
  30 C30           -9.6443     2.3329     0.5723 C.2     
  31 C31           -9.7919     1.0045     0.5381 C.2     
  32 S32           -8.1922     0.2737     0.4234 S.3     
  33 C33           -3.5047    -6.7043    -5.7993 C.3     
  34 F34           -1.0882    -4.8323    -0.0801 F       
  35 H35            0.9873    -0.4133    -0.0840 H       
  36 H36           -3.2646    -0.7565     0.1456 H       
  37 H37           -1.4134     3.1118     0.1505 H       
  38 H38           -3.3114     4.0089     0.2751 H       
  39 H39           -5.1384     0.2650     0.2669 H       
  40 H40           -5.9572     4.3555     0.4342 H       
  41 H41           -0.0321     3.8352    -0.6979 H       
  42 H42            2.2683     3.7872    -1.7069 H       
  43 H43            1.9046     5.3215    -0.8810 H       
  44 H44           -0.2186     3.7283     1.7724 H       
  45 H45            1.5398     3.9643     1.9154 H       
  46 H46            0.5185     5.2630     1.2533 H       
  47 H47           -1.9158    -0.9198    -2.1776 H       
  48 H48           -2.7682    -2.0756    -4.1710 H       
  49 H49           -2.0217    -5.8584    -2.2850 H       
  50 H50            4.2967     5.7041    -0.5383 H       
  51 H51            5.2371     4.4449     0.2972 H       
  52 H52            4.6604     4.1699    -1.3642 H       
  53 H53          -10.4894     3.0020     0.6388 H       
  54 H54          -10.7304     0.4710     0.5711 H       
  55 H55           -4.5344    -6.3848    -5.9598 H       
  56 H56           -2.8939    -6.4030    -6.6503 H       
  57 H57           -3.4729    -7.7888    -5.6950 H       
@<TRIPOS>BOND
   1    1    2 ar
   2    1   12 1
   3    1    6 ar
   4    2    3 ar
   5    2   35 1
   6    3    4 ar
   7    3   17 1
   8    4    5 ar
   9    4   36 1
  10    5    6 ar
  11    5    7 1
  12    6   37 1
  13    7    8 2
  14    7    9 1
  15    8   11 1
  16    8   38 1
  17    9   10 1
  18    9   39 1
  19   10   11 2
  20   10   27 1
  21   11   40 1
  22   12   13 1
  23   13   14 1
  24   13   16 1
  25   13   41 1
  26   14   15 1
  27   14   42 1
  28   14   43 1
  29   15   28 1
  30   16   44 1
  31   16   45 1
  32   16   46 1
  33   17   18 1
  34   18   19 ar
  35   18   20 ar
  36   19   34 1
  37   19   23 ar
  38   20   21 ar
  39   20   47 1
  40   21   22 ar
  41   21   48 1
  42   22   23 ar
  43   22   24 1
  44   23   49 1
  45   24   25 1
  46   24   26 2
  47   25   33 1
  48   27   29 2
  49   27   32 1
  50   28   50 1
  51   28   51 1
  52   28   52 1
  53   29   30 1
  54   30   31 2
  55   30   53 1
  56   31   32 1
  57   31   54 1
  58   33   55 1
  59   33   56 1
  60   33   57 1

#	End of record

