#	Name: ASD01940719
#	Creating user name:	WinNT
#	Creation time:	15. 06. 2019 20:13

#	Modifying user name:	WinNT
#	Modification time:	15. 06. 2019 20:13

#	Program:	/corina/corina34_cracker 3.40 0067  02.08.2006

@<TRIPOS>MOLECULE
ASD01940719
  48   50    0    0    0
SMALL
NO_CHARGES


@<TRIPOS>ATOM
   1 C1             0.4944     0.9164     1.1379 C.ar    
   2 C2            -0.2841     0.4427     0.0979 C.ar    
   3 C3             0.2479     0.3322    -1.1754 C.ar    
   4 C4             1.5638     0.6956    -1.4134 C.ar    
   5 C5             2.3503     1.1719    -0.3730 C.ar    
   6 C6             1.8122     1.2827     0.9081 C.ar    
   7 N7             2.6011     1.7632     1.9618 N.am    
   8 S8             2.4150     1.1421     3.4856 S.o2    
   9 C9             2.9513    -0.5846     3.3393 C.3     
  10 O10            3.3308     1.8831     4.2803 O.2     
  11 O11            1.0158     1.2112     3.7237 O.2     
  12 F12           -0.5172    -0.1313    -2.1879 F       
  13 F13            2.0812     0.5861    -2.6566 F       
  14 N14            3.6818     1.5400    -0.6101 N.pl3   
  15 C15            4.6848     0.5660    -0.6219 C.ar    
  16 C16            6.0211     0.9419    -0.7189 C.ar    
  17 C17            4.3505    -0.7783    -0.5312 C.ar    
  18 C18            5.3440    -1.7386    -0.5432 C.ar    
  19 C19            6.6705    -1.3630    -0.6449 C.ar    
  20 C20            7.0094    -0.0244    -0.7303 C.ar    
  21 F21            6.3519     2.2492    -0.8023 F       
  22 C22            7.7505    -2.4140    -0.6570 C.3     
  23 C23            2.7081    -1.3083     4.6652 C.3     
  24 C24            3.1604    -2.7646     4.5417 C.3     
  25 C25            2.3646    -3.4535     3.4313 C.3     
  26 C26            2.6077    -2.7298     2.1054 C.3     
  27 C27            2.1554    -1.2734     2.2288 C.3     
  28 H28            0.0746     1.0055     2.1290 H       
  29 H29           -1.3099     0.1578     0.2796 H       
  30 H30            3.2563     2.4596     1.7986 H       
  31 H31            4.0137    -0.6158     3.0978 H       
  32 H32            3.9075     2.4704    -0.7661 H       
  33 H33            3.3147    -1.0734    -0.4510 H       
  34 H34            5.0838    -2.7844    -0.4726 H       
  35 H35            8.0467     0.2655    -0.8097 H       
  36 H36            7.9474    -2.7207    -1.6843 H       
  37 H37            8.6608    -2.0045    -0.2192 H       
  38 H38            7.4243    -3.2768    -0.0764 H       
  39 H39            3.2751    -0.8175     5.4563 H       
  40 H40            1.6457    -1.2770     4.9067 H       
  41 H41            4.2229    -2.7959     4.3003 H       
  42 H42            2.9872    -3.2802     5.4864 H       
  43 H43            2.6868    -4.4910     3.3434 H       
  44 H44            1.3021    -3.4222     3.6728 H       
  45 H45            3.6702    -2.7611     1.8639 H       
  46 H46            2.0408    -3.2206     1.3143 H       
  47 H47            1.0930    -1.2422     2.4703 H       
  48 H48            2.3286    -0.7579     1.2842 H       
@<TRIPOS>BOND
   1    1    2 ar
   2    1    6 ar
   3    1   28 1
   4    2    3 ar
   5    2   29 1
   6    3    4 ar
   7    3   12 1
   8    4    5 ar
   9    4   13 1
  10    5    6 ar
  11    5   14 1
  12    6    7 1
  13    7    8 am
  14    7   30 1
  15    8    9 1
  16    8   10 2
  17    8   11 2
  18    9   23 1
  19    9   27 1
  20    9   31 1
  21   14   15 1
  22   14   32 1
  23   15   16 ar
  24   15   17 ar
  25   16   21 1
  26   16   20 ar
  27   17   18 ar
  28   17   33 1
  29   18   19 ar
  30   18   34 1
  31   19   20 ar
  32   19   22 1
  33   20   35 1
  34   22   36 1
  35   22   37 1
  36   22   38 1
  37   23   24 1
  38   23   39 1
  39   23   40 1
  40   24   25 1
  41   24   41 1
  42   24   42 1
  43   25   26 1
  44   25   43 1
  45   25   44 1
  46   26   27 1
  47   26   45 1
  48   26   46 1
  49   27   47 1
  50   27   48 1

#	End of record

