#	Name: ASD03540089
#	Creating user name:	WinNT
#	Creation time:	15. 06. 2019 20:42

#	Modifying user name:	WinNT
#	Modification time:	15. 06. 2019 20:42

#	Program:	/corina/corina34_cracker 3.40 0067  02.08.2006

@<TRIPOS>MOLECULE
ASD03540089
  44   46    0    0    0
SMALL
NO_CHARGES


@<TRIPOS>ATOM
   1 C1            -0.0180     1.4732     0.0101 C.2     
   2 C2             0.0021    -0.0041     0.0020 C.ar    
   3 C3             1.2173    -0.6860    -0.0132 C.ar    
   4 C4             1.2270    -2.0795    -0.0203 C.ar    
   5 C5             2.5105    -2.8109    -0.0360 C.2     
   6 C6             0.0198    -2.7834    -0.0121 C.ar    
   7 C7            -1.1806    -2.1014     0.0026 C.ar    
   8 C8            -1.1975    -0.7208     0.0155 C.ar    
   9 O9             1.0256     2.0948     0.0035 O.2     
  10 O10           -1.1936     2.1308     0.0193 O.3     
  11 O11            3.5590    -2.1976    -0.0428 O.2     
  12 O12            2.5181    -4.1579    -0.0429 O.3     
  13 C13           -1.1373     3.5817     0.0269 C.3     
  14 C14           -2.5375     4.1387     0.0366 C.ar    
  15 C15           -3.1736     4.3875     1.2385 C.ar    
  16 C16           -4.4575     4.8987     1.2486 C.ar    
  17 C17           -5.1068     5.1617     0.0543 C.ar    
  18 C18           -4.4687     4.9122    -1.1489 C.ar    
  19 C19           -3.1828     4.4059    -1.1565 C.ar    
  20 F20           -6.3621     5.6611     0.0630 F       
  21 C21            3.8155    -4.8098    -0.0583 C.3     
  22 C22            3.6264    -6.3049    -0.0640 C.ar    
  23 C23            3.5286    -6.9841    -1.2641 C.ar    
  24 C24            3.3557    -8.3552    -1.2706 C.ar    
  25 C25            3.2804    -9.0486    -0.0746 C.ar    
  26 C26            3.3786    -8.3673     1.1268 C.ar    
  27 C27            3.5567    -6.9968     1.1308 C.ar    
  28 F28            3.1109   -10.3889    -0.0797 F       
  29 H29            2.1473    -0.1370    -0.0199 H       
  30 H30            0.0259    -3.8634    -0.0176 H       
  31 H31           -2.1106    -2.6504     0.0085 H       
  32 H32           -2.1399    -0.1936     0.0318 H       
  33 H33           -0.6055     3.9200     0.9162 H       
  34 H34           -0.6140     3.9297    -0.8637 H       
  35 H35           -2.6671     4.1819     2.1700 H       
  36 H36           -4.9544     5.0927     2.1877 H       
  37 H37           -4.9742     5.1169    -2.0811 H       
  38 H38           -2.6834     4.2150    -2.0948 H       
  39 H39            4.3625    -4.5093    -0.9519 H       
  40 H40            4.3791    -4.5182     0.8279 H       
  41 H41            3.5869    -6.4429    -2.1970 H       
  42 H42            3.2789    -8.8855    -2.2083 H       
  43 H43            3.3200    -8.9071     2.0603 H       
  44 H44            3.6374    -6.4657     2.0677 H       
@<TRIPOS>BOND
   1    1    2 1
   2    1    9 2
   3    1   10 1
   4    2    3 ar
   5    2    8 ar
   6    3    4 ar
   7    3   29 1
   8    4    5 1
   9    4    6 ar
  10    5   11 2
  11    5   12 1
  12    6    7 ar
  13    6   30 1
  14    7    8 ar
  15    7   31 1
  16    8   32 1
  17   10   13 1
  18   12   21 1
  19   13   14 1
  20   13   33 1
  21   13   34 1
  22   14   15 ar
  23   14   19 ar
  24   15   16 ar
  25   15   35 1
  26   16   17 ar
  27   16   36 1
  28   17   18 ar
  29   17   20 1
  30   18   19 ar
  31   18   37 1
  32   19   38 1
  33   21   22 1
  34   21   39 1
  35   21   40 1
  36   22   23 ar
  37   22   27 ar
  38   23   24 ar
  39   23   41 1
  40   24   25 ar
  41   24   42 1
  42   25   26 ar
  43   25   28 1
  44   26   27 ar
  45   26   43 1
  46   27   44 1

#	End of record

