#	Name: ASD01900614
#	Creating user name:	WinNT
#	Creation time:	15. 06. 2019 19:52

#	Modifying user name:	WinNT
#	Modification time:	15. 06. 2019 19:52

#	Program:	/corina/corina34_cracker 3.40 0067  02.08.2006

@<TRIPOS>MOLECULE
ASD01900614
  41   44    0    0    0
SMALL
NO_CHARGES


@<TRIPOS>ATOM
   1 N1            -0.7176     1.6086    -0.5701 N.am    
   2 C2            -1.0772     0.2873    -0.8596 C.ar    
   3 C3            -0.4477    -1.9732    -1.3574 C.ar    
   4 C4            -0.0933    -0.6696    -1.0712 C.ar    
   5 C5            -2.4182    -0.0682    -0.9298 C.ar    
   6 C6            -2.7726    -1.3722    -1.2155 C.ar    
   7 C7            -1.7873    -2.3279    -1.4328 C.ar    
   8 Cl8           -4.4483    -1.8173    -1.3028 Cl      
   9 C9            -1.4305     2.3202     0.3254 C.2     
  10 C10           -1.0167     3.6943     0.6743 C.ar    
  11 O11           -2.4144     1.8309     0.8459 O.2     
  12 C12           -1.6864     4.3862     1.6927 C.ar    
  13 C13           -1.2790     5.6832     2.0066 C.ar    
  14 C14           -0.2276     6.2327     1.2966 C.ar    
  15 C15            0.3879     5.4871     0.3010 C.ar    
  16 N16           -0.0082     4.2653     0.0246 N.ar    
  17 N17           -2.7379     3.7911     2.3773 N.pl3   
  18 N18           -2.1471    -3.6527    -1.7241 N.am    
  19 C19           -2.3399    -4.6101    -0.7989 C.2     
  20 C20           -2.7060    -5.8650    -1.4888 C.ar    
  21 C21           -2.3500    -4.1310    -2.9650 C.2     
  22 C22           -3.0215    -6.5472    -3.7877 C.ar    
  23 C23           -2.7094    -5.5614    -2.8655 C.ar    
  24 C24           -3.0125    -7.1482    -1.0656 C.ar    
  25 C25           -3.3204    -8.1249    -1.9999 C.ar    
  26 C26           -3.3237    -7.8272    -3.3497 C.ar    
  27 O27           -2.2523    -3.4946    -3.9948 O.2     
  28 O28           -2.2308    -4.4673     0.4022 O.2     
  29 H29            0.0470     2.0109    -1.0109 H       
  30 H30            0.3178    -2.7170    -1.5222 H       
  31 H31            0.9493    -0.3941    -1.0123 H       
  32 H32           -3.1835     0.6748    -0.7605 H       
  33 H33           -1.7734     6.2447     2.7855 H       
  34 H34            0.1118     7.2345     1.5148 H       
  35 H35            1.2091     5.9171    -0.2532 H       
  36 H36           -2.8138     2.8244     2.4043 H       
  37 H37           -3.3964     4.3421     2.8287 H       
  38 H38           -3.0320    -6.3186    -4.8432 H       
  39 H39           -3.0111    -7.3866    -0.0122 H       
  40 H40           -3.5591    -9.1255    -1.6709 H       
  41 H41           -3.5674    -8.5961    -4.0678 H       
@<TRIPOS>BOND
   1    1    2 1
   2    1    9 am
   3    1   29 1
   4    2    5 ar
   5    2    4 ar
   6    3    4 ar
   7    3    7 ar
   8    3   30 1
   9    4   31 1
  10    5    6 ar
  11    5   32 1
  12    6    7 ar
  13    6    8 1
  14    7   18 1
  15    9   10 1
  16    9   11 2
  17   10   12 ar
  18   10   16 ar
  19   12   13 ar
  20   12   17 1
  21   13   14 ar
  22   13   33 1
  23   14   15 ar
  24   14   34 1
  25   15   16 ar
  26   15   35 1
  27   17   36 1
  28   17   37 1
  29   18   19 am
  30   18   21 am
  31   19   20 1
  32   19   28 2
  33   20   24 ar
  34   20   23 ar
  35   21   27 2
  36   21   23 1
  37   22   23 ar
  38   22   26 ar
  39   22   38 1
  40   24   25 ar
  41   24   39 1
  42   25   26 ar
  43   25   40 1
  44   26   41 1

#	End of record

