#	Name: ASD00070012
#	Creating user name:	WinNT
#	Creation time:	15. 06. 2019 18:29

#	Modifying user name:	WinNT
#	Modification time:	15. 06. 2019 18:29

#	Program:	/corina/corina34_cracker 3.40 0067  02.08.2006

@<TRIPOS>MOLECULE
ASD00070012
  72   76    0    0    0
SMALL
NO_CHARGES


@<TRIPOS>ATOM
   1 C1            -0.0187     1.5267     0.0104 C.3     
   2 C2             0.0021    -0.0041     0.0020 C.3     
   3 C3             0.7722    -0.4897    -1.2298 C.3     
   4 C4             2.1813     0.1106    -1.2068 C.3     
   5 C5             2.0763     1.6370    -1.1517 C.3     
   6 O6             1.3225     2.0200     0.0003 O.3     
   7 C7             0.8646    -1.9937    -1.2060 C.2     
   8 O8             0.3643    -2.6176    -0.2942 O.2     
   9 N9             1.5033    -2.6454    -2.1979 N.am    
  10 C10            1.5931    -4.1075    -2.1747 C.3     
  11 C11            1.7710    -4.6302    -3.6016 C.3     
  12 C12            1.8648    -6.1571    -3.5774 C.3     
  13 C13            3.0631    -6.5810    -2.7258 C.3     
  14 C14            2.8852    -6.0583    -1.2989 C.3     
  15 C15            2.7914    -4.5314    -1.3231 C.3     
  16 C16            3.1570    -8.1080    -2.7016 C.3     
  17 C17            4.4244    -8.5293    -1.9552 C.3     
  18 N18            4.5144    -9.9953    -1.9320 N.3     
  19 C19            5.8255   -10.4343    -1.4372 C.3     
  20 C20            5.9367   -11.9554    -1.5633 C.3     
  21 C21            4.8175   -12.6131    -0.7513 C.3     
  22 C22            3.4646   -12.1024    -1.2546 C.3     
  23 C23            3.4250   -10.5770    -1.1374 C.3     
  24 O24            5.3482   -16.9044     1.2427 O.3     
  25 C25            4.9928   -15.9953     2.2982 C.3     
  26 C26            5.2370   -14.6100     1.6541 C.3     
  27 C27            5.0739   -14.9181     0.1783 C.ar    
  28 C28            5.1463   -16.2986     0.0405 C.ar    
  29 C29            4.8854   -14.1091    -0.9199 C.ar    
  30 C30            4.7578   -14.6704    -2.1785 C.ar    
  31 C31            4.8204   -16.0433    -2.3273 C.ar    
  32 C32            5.0123   -16.8556    -1.2287 C.ar    
  33 H33           -0.5456     1.8879    -0.8727 H       
  34 H34           -0.5286     1.8784     0.9073 H       
  35 H35            0.4932    -0.3667     0.9050 H       
  36 H36           -1.0196    -0.3820    -0.0348 H       
  37 H37            0.2540    -0.1692    -2.1336 H       
  38 H38            2.7164    -0.2496    -0.3283 H       
  39 H39            2.7180    -0.1853    -2.1082 H       
  40 H40            3.0756     2.0681    -1.0920 H       
  41 H41            1.5768     1.9997    -2.0501 H       
  42 H42            1.9034    -2.1464    -2.9271 H       
  43 H43            0.6794    -4.5209    -1.7475 H       
  44 H44            0.9172    -4.3282    -4.2082 H       
  45 H45            2.6846    -4.2168    -4.0287 H       
  46 H46            0.9511    -6.5706    -3.1502 H       
  47 H47            1.9915    -6.5295    -4.5939 H       
  48 H48            3.9768    -6.1676    -3.1529 H       
  49 H49            1.9716    -6.4717    -0.8718 H       
  50 H50            3.7390    -6.3603    -0.6923 H       
  51 H51            3.7051    -4.1180    -1.7503 H       
  52 H52            2.6647    -4.1590    -0.3066 H       
  53 H53            2.2835    -8.5177    -2.1944 H       
  54 H54            3.1944    -8.4859    -3.7233 H       
  55 H55            5.2979    -8.1196    -2.4625 H       
  56 H56            4.3870    -8.1513    -0.9336 H       
  57 H57            6.6123    -9.9625    -2.0257 H       
  58 H58            5.9333   -10.1477    -0.3910 H       
  59 H59            5.8427   -12.2415    -2.6108 H       
  60 H60            6.9038   -12.2825    -1.1814 H       
  61 H61            4.9339   -12.3587     0.3022 H       
  62 H62            3.3317   -12.3908    -2.2973 H       
  63 H63            2.6655   -12.5344    -0.6522 H       
  64 H64            3.5441   -10.2898    -0.0927 H       
  65 H65            2.4685   -10.2089    -1.5083 H       
  66 H66            3.9448   -16.1139     2.5734 H       
  67 H67            5.6391   -16.1377     3.1644 H       
  68 H68            4.4902   -13.8888     1.9864 H       
  69 H69            6.2441   -14.2527     1.8686 H       
  70 H70            4.6095   -14.0380    -3.0413 H       
  71 H71            4.7181   -16.4825    -3.3087 H       
  72 H72            5.0603   -17.9273    -1.3537 H       
@<TRIPOS>BOND
   1    1    2 1
   2    1    6 1
   3    1   33 1
   4    1   34 1
   5    2    3 1
   6    2   35 1
   7    2   36 1
   8    3    4 1
   9    3    7 1
  10    3   37 1
  11    4    5 1
  12    4   38 1
  13    4   39 1
  14    5    6 1
  15    5   40 1
  16    5   41 1
  17    7    8 2
  18    7    9 am
  19    9   10 1
  20    9   42 1
  21   10   11 1
  22   10   15 1
  23   10   43 1
  24   11   12 1
  25   11   44 1
  26   11   45 1
  27   12   13 1
  28   12   46 1
  29   12   47 1
  30   13   14 1
  31   13   16 1
  32   13   48 1
  33   14   15 1
  34   14   49 1
  35   14   50 1
  36   15   51 1
  37   15   52 1
  38   16   17 1
  39   16   53 1
  40   16   54 1
  41   17   18 1
  42   17   55 1
  43   17   56 1
  44   18   19 1
  45   18   23 1
  46   19   20 1
  47   19   57 1
  48   19   58 1
  49   20   21 1
  50   20   59 1
  51   20   60 1
  52   21   22 1
  53   21   29 1
  54   21   61 1
  55   22   23 1
  56   22   62 1
  57   22   63 1
  58   23   64 1
  59   23   65 1
  60   24   25 1
  61   24   28 1
  62   25   26 1
  63   25   66 1
  64   25   67 1
  65   26   27 1
  66   26   68 1
  67   26   69 1
  68   27   28 ar
  69   27   29 ar
  70   28   32 ar
  71   29   30 ar
  72   30   31 ar
  73   30   70 1
  74   31   32 ar
  75   31   71 1
  76   32   72 1

#	End of record

