#	Name: ASD02198777
#	Creating user name:	WinNT
#	Creation time:	15. 06. 2019 20:20

#	Modifying user name:	WinNT
#	Modification time:	15. 06. 2019 20:20

#	Program:	/corina/corina34_cracker 3.40 0067  02.08.2006

@<TRIPOS>MOLECULE
ASD02198777
  54   58    0    0    0
SMALL
NO_CHARGES


@<TRIPOS>ATOM
   1 F1             2.4154    -1.5879     2.6152 F       
   2 C2             0.0330     1.4892    -0.0583 C.2     
   3 C3             0.0278     0.1581     0.2053 C.2     
   4 N4             1.1853    -0.5187     0.3780 N.pl3   
   5 N5             2.3404     0.0327     0.3078 N.2     
   6 C6             2.4882     1.3164     0.0584 C.2     
   7 C7             1.2865     2.1408    -0.1455 C.2     
   8 C8             1.1191    -1.8902     0.6476 C.ar    
   9 C9             1.7439    -2.4084     1.7780 C.ar    
  10 C10            1.6773    -3.7631     2.0432 C.ar    
  11 C11            0.9870    -4.6060     1.1815 C.ar    
  12 C12            0.3634    -4.0874     0.0528 C.ar    
  13 C13            0.4248    -2.7343    -0.2102 C.ar    
  14 C14            3.8350     1.9184    -0.0148 C.2     
  15 N15            4.3514     2.6278    -1.0626 N.pl3   
  16 N16            5.6520     3.0145    -0.7162 N.2     
  17 C17            5.9195     2.5645     0.4839 C.2     
  18 C18            4.8050     1.8757     0.9625 C.2     
  19 C19            3.6970     2.9165    -2.2669 C.ar    
  20 C20            3.8024     4.1814    -2.8302 C.ar    
  21 C21            3.1560     4.4629    -4.0178 C.ar    
  22 C22            2.4044     3.4867    -4.6459 C.ar    
  23 C23            2.2972     2.2263    -4.0873 C.ar    
  24 C24            2.9463     1.9367    -2.9031 C.ar    
  25 O25            1.3673     3.3375    -0.3799 O.2     
  26 N26            0.9200    -5.9753     1.4491 N.3     
  27 C27            0.0981    -6.6306     0.5177 C.3     
  28 C28           -0.1537    -8.1001     0.9140 C.3     
  29 O29            0.9851    -8.8634     0.6009 O.3     
  30 C30            1.9478    -9.0538     1.6560 C.3     
  31 C31            2.1919    -7.7733     2.4688 C.3     
  32 C32            2.2712    -6.5553     1.5816 C.3     
  33 H33           -0.8892     2.0328    -0.2013 H       
  34 H34           -0.9129    -0.3673     0.2783 H       
  35 H35            2.1621    -4.1664     2.9200 H       
  36 H36           -0.1731    -4.7434    -0.6167 H       
  37 H37           -0.0605    -2.3323    -1.0873 H       
  38 H38            6.8482     2.7063     1.0166 H       
  39 H39            4.7202     1.3905     1.9237 H       
  40 H40            4.3889     4.9443    -2.3399 H       
  41 H41            3.2372     5.4466    -4.4562 H       
  42 H42            1.8999     3.7093    -5.5745 H       
  43 H43            1.7089     1.4662    -4.5799 H       
  44 H44            2.8621     0.9521    -2.4673 H       
  45 H45           -0.8574    -6.1096     0.4582 H       
  46 H46            0.5779    -6.6034    -0.4607 H       
  47 H47           -0.3497    -8.1603     1.9845 H       
  48 H48           -1.0124    -8.4840     0.3631 H       
  49 H49            1.5863    -9.8334     2.3265 H       
  50 H50            2.8915    -9.3783     1.2176 H       
  51 H51            1.3760    -7.6427     3.1798 H       
  52 H52            3.1277    -7.8742     3.0184 H       
  53 H53            2.6433    -6.8431     0.5983 H       
  54 H54            2.9419    -5.8211     2.0279 H       
@<TRIPOS>BOND
   1    1    9 1
   2    2    3 2
   3    2    7 1
   4    2   33 1
   5    3    4 1
   6    3   34 1
   7    4    5 1
   8    4    8 1
   9    5    6 2
  10    6    7 1
  11    6   14 1
  12    7   25 2
  13    8    9 ar
  14    8   13 ar
  15    9   10 ar
  16   10   11 ar
  17   10   35 1
  18   11   12 ar
  19   11   26 1
  20   12   13 ar
  21   12   36 1
  22   13   37 1
  23   14   15 1
  24   14   18 2
  25   15   16 1
  26   15   19 1
  27   16   17 2
  28   17   18 1
  29   17   38 1
  30   18   39 1
  31   19   20 ar
  32   19   24 ar
  33   20   21 ar
  34   20   40 1
  35   21   22 ar
  36   21   41 1
  37   22   23 ar
  38   22   42 1
  39   23   24 ar
  40   23   43 1
  41   24   44 1
  42   26   27 1
  43   26   32 1
  44   27   28 1
  45   27   45 1
  46   27   46 1
  47   28   29 1
  48   28   47 1
  49   28   48 1
  50   29   30 1
  51   30   31 1
  52   30   49 1
  53   30   50 1
  54   31   32 1
  55   31   51 1
  56   31   52 1
  57   32   53 1
  58   32   54 1

#	End of record

