#	Name: ASD00120025
#	Creating user name:	WinNT
#	Creation time:	15. 06. 2019 18:31

#	Modifying user name:	WinNT
#	Modification time:	15. 06. 2019 18:31

#	Program:	/corina/corina34_cracker 3.40 0067  02.08.2006

@<TRIPOS>MOLECULE
ASD00120025
  33   36    0    0    0
SMALL
NO_CHARGES


@<TRIPOS>ATOM
   1 C1            -0.0170     1.4008     0.0097 C.ar    
   2 C2             0.0021    -0.0041     0.0020 C.ar    
   3 C3             1.1940    -0.6614    -0.0128 C.ar    
   4 C4             2.3990     0.0381    -0.0201 C.ar    
   5 C5             2.4193     1.3992    -0.0125 C.ar    
   6 C6             1.2089     2.1124     0.0019 C.ar    
   7 C7             1.1898     3.5178     0.0090 C.ar    
   8 C8            -0.0019     4.1748     0.0234 C.ar    
   9 C9            -1.2073     3.4751     0.0312 C.ar    
  10 C10           -1.2278     2.1144     0.0193 C.ar    
  11 C11            3.7333     2.1372    -0.0195 C.3     
  12 S12            4.2448     2.4423    -1.7287 S.3     
  13 C13            5.7626     3.2917    -1.4468 C.ar    
  14 N14            6.1944     3.5213    -0.2085 N.ar    
  15 C15            7.3309     4.1567     0.0106 C.ar    
  16 N16            8.0951     4.5956    -0.9652 N.ar    
  17 C17            6.5427     3.7343    -2.5174 C.ar    
  18 N18            6.4398     3.6830    -3.8913 N.pl3   
  19 C19            7.7422     4.4107    -2.2415 C.ar    
  20 N20            8.2913     4.7310    -3.4282 N.2     
  21 C21            7.5330     4.2975    -4.3967 C.2     
  22 H22           -0.9241    -0.5595     0.0082 H       
  23 H23            1.2059    -1.7413    -0.0188 H       
  24 H24            3.3309    -0.5077    -0.0315 H       
  25 H25            2.1159     4.0733     0.0034 H       
  26 H26           -0.0137     5.2548     0.0292 H       
  27 H27           -2.1391     4.0210     0.0427 H       
  28 H28           -2.1695     1.5856     0.0210 H       
  29 H29            3.6186     3.0881     0.5008 H       
  30 H30            4.4902     1.5362     0.4845 H       
  31 H31            7.6446     4.3227     1.0306 H       
  32 H32            5.7183     3.2812    -4.4000 H       
  33 H33            7.7430     4.4199    -5.4490 H       
@<TRIPOS>BOND
   1    1    2 ar
   2    1    6 ar
   3    1   10 ar
   4    2    3 ar
   5    2   22 1
   6    3    4 ar
   7    3   23 1
   8    4    5 ar
   9    4   24 1
  10    5    6 ar
  11    5   11 1
  12    6    7 ar
  13    7    8 ar
  14    7   25 1
  15    8    9 ar
  16    8   26 1
  17    9   10 ar
  18    9   27 1
  19   10   28 1
  20   11   12 1
  21   11   29 1
  22   11   30 1
  23   12   13 1
  24   13   14 ar
  25   13   17 ar
  26   14   15 ar
  27   15   16 ar
  28   15   31 1
  29   16   19 ar
  30   17   19 ar
  31   17   18 1
  32   18   21 1
  33   18   32 1
  34   19   20 1
  35   20   21 2
  36   21   33 1

#	End of record

