#	Name: ASD01948283
#	Creating user name:	WinNT
#	Creation time:	15. 06. 2019 20:14

#	Modifying user name:	WinNT
#	Modification time:	15. 06. 2019 20:14

#	Program:	/corina/corina34_cracker 3.40 0067  02.08.2006

@<TRIPOS>MOLECULE
ASD01948283
  46   49    0    0    0
SMALL
NO_CHARGES


@<TRIPOS>ATOM
   1 C1             1.4505     4.9322    -1.2944 C.ar    
   2 C2             1.9316     4.9380    -2.5918 C.ar    
   3 C3             3.0415     4.1832    -2.9246 C.ar    
   4 C4             3.6746     3.4200    -1.9623 C.ar    
   5 C5             3.1959     3.4109    -0.6593 C.ar    
   6 C6             2.0789     4.1710    -0.3266 C.ar    
   7 N7             4.6367     0.4981    -0.3160 N.am    
   8 C8             4.8803     1.8101    -0.0342 C.2     
   9 N9             3.8348     2.6392     0.3169 N.pl3   
  10 C10            5.6376    -0.3329    -0.6612 C.2     
  11 C11            6.9610     0.1432    -0.7371 C.2     
  12 C12            7.2231     1.4800    -0.4514 C.2     
  13 C13            6.1663     2.3174    -0.0966 C.2     
  14 N14            6.4063     3.6726     0.1961 N.am    
  15 I15            0.9758     6.0925    -4.0556 I       
  16 O16            5.3975    -1.5043    -0.9092 O.2     
  17 F17            1.6097     4.1655     0.9403 F       
  18 C18            3.2669    -0.0154    -0.2361 C.3     
  19 S19            7.9288     4.3003     0.0222 S.o2    
  20 O20            7.7886     5.6662     0.3881 O.2     
  21 O21            8.7575     3.4224     0.7716 O.2     
  22 C22            8.2808     4.1493    -1.7509 C.3     
  23 C23            9.6226     4.6862    -2.2531 C.3     
  24 C24            9.3846     3.1770    -2.1717 C.3     
  25 C25            8.0647    -0.7712    -1.1168 C.2     
  26 C26            7.9447    -2.0912    -1.4179 C.2     
  27 N27            9.3673    -0.4414    -1.2311 N.2     
  28 C28           10.0482    -1.4965    -1.5825 C.2     
  29 N29            9.2041    -2.5432    -1.7094 N.pl3   
  30 H30            0.5862     5.5263    -1.0366 H       
  31 H31            3.4139     4.1899    -3.9383 H       
  32 H32            4.5411     2.8308    -2.2237 H       
  33 H33            3.5429     2.6870     1.2407 H       
  34 H34            8.2313     1.8635    -0.5042 H       
  35 H35            5.6799     4.2392     0.4999 H       
  36 H36            2.7517     0.1759    -1.1774 H       
  37 H37            3.2917    -1.0886    -0.0471 H       
  38 H38            2.7383     0.4843     0.5756 H       
  39 H39            7.4195     4.2498    -2.4114 H       
  40 H40            9.6442     5.1396    -3.2440 H       
  41 H41           10.2938     5.1302    -1.5180 H       
  42 H42            9.8994     2.6281    -1.3831 H       
  43 H43            9.2497     2.6375    -3.1092 H       
  44 H44            7.0334    -2.6709    -1.4256 H       
  45 H45           11.1150    -1.5278    -1.7480 H       
  46 H46            9.4456    -3.4485    -1.9604 H       
@<TRIPOS>BOND
   1    1    2 ar
   2    1    6 ar
   3    1   30 1
   4    2    3 ar
   5    2   15 1
   6    3    4 ar
   7    3   31 1
   8    4    5 ar
   9    4   32 1
  10    5    6 ar
  11    5    9 1
  12    6   17 1
  13    7    8 1
  14    7   10 am
  15    7   18 1
  16    8    9 1
  17    8   13 2
  18    9   33 1
  19   10   11 1
  20   10   16 2
  21   11   12 2
  22   11   25 1
  23   12   13 1
  24   12   34 1
  25   13   14 1
  26   14   19 am
  27   14   35 1
  28   18   36 1
  29   18   37 1
  30   18   38 1
  31   19   20 2
  32   19   21 2
  33   19   22 1
  34   22   23 1
  35   22   24 1
  36   22   39 1
  37   23   24 1
  38   23   40 1
  39   23   41 1
  40   24   42 1
  41   24   43 1
  42   25   26 2
  43   25   27 1
  44   26   29 1
  45   26   44 1
  46   27   28 2
  47   28   29 1
  48   28   45 1
  49   29   46 1

#	End of record

