#	Name: ASD06170205
#	Creating user name:	WinNT
#	Creation time:	15. 06. 2019 21:05

#	Modifying user name:	WinNT
#	Modification time:	15. 06. 2019 21:05

#	Program:	/corina/corina34_cracker 3.40 0067  02.08.2006

@<TRIPOS>MOLECULE
ASD06170205
  60   64    0    0    0
SMALL
NO_CHARGES


@<TRIPOS>ATOM
   1 C1            -0.0909     1.4521    -0.0612 C.2     
   2 C2            -0.1155     0.0340    -0.0734 C.2     
   3 C3             1.0924    -0.6594    -0.1263 C.2     
   4 C4             2.2854     0.0634    -0.1655 C.2     
   5 C5             2.2602     1.4212    -0.1520 C.2     
   6 N6             1.0879     2.1017    -0.1005 N.am    
   7 C7            -1.3935    -0.6924    -0.0304 C.2     
   8 O8            -1.4097    -1.9027    -0.1530 O.2     
   9 N9            -2.5467    -0.0172     0.1447 N.am    
  10 C10            1.1038     3.5017    -0.0882 C.ar    
  11 C11            1.6550     4.1818     0.9899 C.ar    
  12 C12            1.6696     5.5628     0.9988 C.ar    
  13 C13            1.1362     6.2683    -0.0643 C.ar    
  14 C14            0.5866     5.5940    -1.1393 C.ar    
  15 C15            0.5737     4.2130    -1.1567 C.ar    
  16 O16           -1.1343     2.0811    -0.0203 O.2     
  17 C17           -3.7722    -0.6899     0.0577 C.ar    
  18 C18           -4.9629     0.0264     0.0945 C.ar    
  19 C19           -6.1709    -0.6382     0.0087 C.ar    
  20 C20           -6.1953    -2.0203    -0.1138 C.ar    
  21 C21           -5.0071    -2.7353    -0.1500 C.ar    
  22 C22           -3.7983    -2.0718    -0.0710 C.ar    
  23 O23           -7.3844    -2.6739    -0.1977 O.3     
  24 N24           -8.6925    -4.7068     3.1440 N.ar    
  25 C25           -7.5095    -4.1388     3.1381 C.ar    
  26 C26           -7.0351    -3.4461     2.0313 C.ar    
  27 C27           -7.8211    -3.3441     0.8970 C.ar    
  28 C28           -9.0929    -3.9596     0.9148 C.ar    
  29 C29           -9.9460    -3.8996    -0.1973 C.ar    
  30 C30          -11.1677    -4.5061    -0.1450 C.ar    
  31 C31          -11.5786    -5.1880     1.0092 C.ar    
  32 C32          -10.7681    -5.2616     2.1053 C.ar    
  33 C33           -9.5048    -4.6479     2.0820 C.ar    
  34 O34          -12.7999    -5.7832     1.0373 O.3     
  35 C35          -13.1628    -6.4629     2.2407 C.3     
  36 O36          -11.9947    -4.4481    -1.2228 O.3     
  37 C37          -11.5189    -3.7382    -2.3682 C.3     
  38 Cl38          -4.9319     1.7553     0.2488 Cl      
  39 Br39           3.9400    -0.8493    -0.2370 Br      
  40 H40            1.1049    -1.7392    -0.1364 H       
  41 H41            3.1904     1.9691    -0.1823 H       
  42 H42           -2.5281     0.9345     0.3310 H       
  43 H43            2.0714     3.6314     1.8206 H       
  44 H44            2.0978     6.0923     1.8370 H       
  45 H45            1.1485     7.3482    -0.0548 H       
  46 H46            0.1705     6.1478    -1.9678 H       
  47 H47            0.1480     3.6870    -1.9984 H       
  48 H48           -7.0963    -0.0821     0.0372 H       
  49 H49           -5.0272    -3.8110    -0.2450 H       
  50 H50           -2.8734    -2.6286    -0.1042 H       
  51 H51           -6.8876    -4.2116     4.0181 H       
  52 H52           -6.0570    -2.9886     2.0563 H       
  53 H53           -9.6378    -3.3758    -1.0901 H       
  54 H54          -11.0974    -5.7899     2.9879 H       
  55 H55          -14.1587    -6.8918     2.1296 H       
  56 H56          -12.4446    -7.2585     2.4394 H       
  57 H57          -13.1618    -5.7570     3.0712 H       
  58 H58          -11.3191    -2.7018    -2.0961 H       
  59 H59          -10.6009    -4.2029    -2.7281 H       
  60 H60          -12.2737    -3.7686    -3.1539 H       
@<TRIPOS>BOND
   1    1    2 1
   2    1    6 am
   3    1   16 2
   4    2    3 2
   5    2    7 1
   6    3    4 1
   7    3   40 1
   8    4    5 2
   9    4   39 1
  10    5    6 1
  11    5   41 1
  12    6   10 1
  13    7    8 2
  14    7    9 am
  15    9   17 1
  16    9   42 1
  17   10   11 ar
  18   10   15 ar
  19   11   12 ar
  20   11   43 1
  21   12   13 ar
  22   12   44 1
  23   13   14 ar
  24   13   45 1
  25   14   15 ar
  26   14   46 1
  27   15   47 1
  28   17   18 ar
  29   17   22 ar
  30   18   19 ar
  31   18   38 1
  32   19   20 ar
  33   19   48 1
  34   20   21 ar
  35   20   23 1
  36   21   22 ar
  37   21   49 1
  38   22   50 1
  39   23   27 1
  40   24   25 ar
  41   24   33 ar
  42   25   26 ar
  43   25   51 1
  44   26   27 ar
  45   26   52 1
  46   27   28 ar
  47   28   29 ar
  48   28   33 ar
  49   29   30 ar
  50   29   53 1
  51   30   31 ar
  52   30   36 1
  53   31   32 ar
  54   31   34 1
  55   32   33 ar
  56   32   54 1
  57   34   35 1
  58   35   55 1
  59   35   56 1
  60   35   57 1
  61   36   37 1
  62   37   58 1
  63   37   59 1
  64   37   60 1

#	End of record

