#	Name: ASD01148765
#	Creating user name:	WinNT
#	Creation time:	15. 06. 2019 19:03

#	Modifying user name:	WinNT
#	Modification time:	15. 06. 2019 19:03

#	Program:	/corina/corina34_cracker 3.40 0067  02.08.2006

@<TRIPOS>MOLECULE
ASD01148765
  57   60    0    0    0
SMALL
NO_CHARGES


@<TRIPOS>ATOM
   1 N1            -0.0155     1.3412     0.0827 N.pl3   
   2 C2             0.0020     0.0054    -0.1104 C.2     
   3 C3             1.3175    -0.4067    -0.1563 C.2     
   4 C4             2.1209     0.7506     0.0195 C.2     
   5 C5             1.2771     1.8041     0.1631 C.2     
   6 C6             1.7971    -1.7843    -0.3498 C.2     
   7 O7             1.0001    -2.6914    -0.4887 O.2     
   8 O8             3.1202    -2.0403    -0.3731 O.3     
   9 C9            -1.1681     2.1320     0.1797 C.ar    
  10 C10           -2.0096     2.0036     1.2769 C.ar    
  11 C11           -3.1446     2.7847     1.3700 C.ar    
  12 C12           -3.4436     3.6942     0.3719 C.ar    
  13 C13           -2.6080     3.8240    -0.7220 C.ar    
  14 C14           -1.4681     3.0495    -0.8180 C.ar    
  15 S15           -4.2132     2.6221     2.7615 S.o2    
  16 O16           -5.4898     3.0854     2.3433 O.2     
  17 O17           -3.9925     1.3204     3.2870 O.2     
  18 N18           -3.6835     3.6874     3.9134 N.am    
  19 C19           -4.1251     5.0822     4.0584 C.3     
  20 C20           -3.3461     5.6885     5.2446 C.3     
  21 C21           -2.0975     4.7729     5.3447 C.3     
  22 C22           -2.6958     3.3923     4.9673 C.3     
  23 C23           -1.2073    -0.8827    -0.2507 C.3     
  24 C24            1.6797     3.2120     0.3702 C.ar    
  25 C25            0.7825     4.1219     0.9310 C.ar    
  26 C26            1.1636     5.4339     1.1218 C.ar    
  27 C27            2.4336     5.8486     0.7580 C.ar    
  28 C28            3.3281     4.9504     0.2007 C.ar    
  29 C29            2.9603     3.6345     0.0109 C.ar    
  30 Cl30           2.9062     7.5012     1.0011 Cl      
  31 C31            3.5210    -3.4222    -0.5681 C.3     
  32 C32            5.0481    -3.5155    -0.5659 C.3     
  33 H33            3.2002     0.7861     0.0359 H       
  34 H34           -1.7768     1.2933     2.0565 H       
  35 H35           -4.3318     4.3039     0.4469 H       
  36 H36           -2.8443     4.5348    -1.5000 H       
  37 H37           -0.8135     3.1545    -1.6705 H       
  38 H38           -3.9040     5.6377     3.1470 H       
  39 H39           -5.1953     5.1129     4.2633 H       
  40 H40           -3.0543     6.7164     5.0293 H       
  41 H41           -3.9360     5.6376     6.1598 H       
  42 H42           -1.3310     5.0782     4.6323 H       
  43 H43           -1.7021     4.7610     6.3604 H       
  44 H44           -3.1851     2.9398     5.8298 H       
  45 H45           -1.9167     2.7338     4.5834 H       
  46 H46           -1.4889    -0.9497    -1.3016 H       
  47 H47           -0.9729    -1.8780     0.1268 H       
  48 H48           -2.0348    -0.4628     0.3211 H       
  49 H49           -0.2085     3.7996     1.2148 H       
  50 H50            0.4699     6.1390     1.5553 H       
  51 H51            4.3172     5.2796    -0.0814 H       
  52 H52            3.6604     2.9337    -0.4193 H       
  53 H53            3.1184    -4.0345     0.2388 H       
  54 H54            3.1364    -3.7807    -1.5229 H       
  55 H55            5.4507    -2.9031    -1.3728 H       
  56 H56            5.4327    -3.1569     0.3889 H       
  57 H57            5.3490    -4.5529    -0.7123 H       
@<TRIPOS>BOND
   1    1    2 1
   2    1    5 1
   3    1    9 1
   4    2    3 2
   5    2   23 1
   6    3    4 1
   7    3    6 1
   8    4    5 2
   9    4   33 1
  10    5   24 1
  11    6    7 2
  12    6    8 1
  13    8   31 1
  14    9   10 ar
  15    9   14 ar
  16   10   11 ar
  17   10   34 1
  18   11   12 ar
  19   11   15 1
  20   12   13 ar
  21   12   35 1
  22   13   14 ar
  23   13   36 1
  24   14   37 1
  25   15   16 2
  26   15   17 2
  27   15   18 am
  28   18   19 1
  29   18   22 1
  30   19   20 1
  31   19   38 1
  32   19   39 1
  33   20   21 1
  34   20   40 1
  35   20   41 1
  36   21   22 1
  37   21   42 1
  38   21   43 1
  39   22   44 1
  40   22   45 1
  41   23   46 1
  42   23   47 1
  43   23   48 1
  44   24   25 ar
  45   24   29 ar
  46   25   26 ar
  47   25   49 1
  48   26   27 ar
  49   26   50 1
  50   27   28 ar
  51   27   30 1
  52   28   29 ar
  53   28   51 1
  54   29   52 1
  55   31   32 1
  56   31   53 1
  57   31   54 1
  58   32   55 1
  59   32   56 1
  60   32   57 1

#	End of record

