#	Name: ASD02198502
#	Creating user name:	WinNT
#	Creation time:	15. 06. 2019 20:19

#	Modifying user name:	WinNT
#	Modification time:	15. 06. 2019 20:19

#	Program:	/corina/corina34_cracker 3.40 0067  02.08.2006

@<TRIPOS>MOLECULE
ASD02198502
  54   59    0    0    0
SMALL
NO_CHARGES


@<TRIPOS>ATOM
   1 C1            -0.2747     1.6195    -0.2672 C.2     
   2 C2            -0.4169     0.2716    -0.2073 C.2     
   3 N3             0.6612    -0.5340    -0.0754 N.pl3   
   4 N4             1.8632    -0.0951     0.0000 N.2     
   5 C5             2.1422     1.1896    -0.0458 C.2     
   6 C6             1.0355     2.1499    -0.1878 C.2     
   7 C7             0.4542    -1.9162    -0.0180 C.ar    
   8 C8             1.3311    -4.1478     0.0281 C.ar    
   9 C9             0.0447    -4.6504     0.0957 C.ar    
  10 C10           -1.0380    -3.7898     0.1008 C.ar    
  11 C11           -0.8373    -2.4249     0.0442 C.ar    
  12 C12            3.5395     1.6598     0.0441 C.2     
  13 N13            4.1870     2.4585    -0.8562 N.pl3   
  14 N14            5.4908     2.6605    -0.3868 N.2     
  15 C15            5.6353     2.0178     0.7446 C.2     
  16 C16            4.4337     1.3807     1.0543 C.2     
  17 C17            3.6440     2.9809    -2.0369 C.ar    
  18 C18            2.8467     2.1843    -2.8482 C.ar    
  19 O19            1.2392     3.3538    -0.2358 O.2     
  20 C20            3.8972     4.2983    -2.3959 C.ar    
  21 C21            3.3603     4.8104    -3.5608 C.ar    
  22 C22            2.5715     4.0129    -4.3694 C.ar    
  23 C23            2.3128     2.7023    -4.0118 C.ar    
  24 C24            1.5391    -2.7836    -0.0288 C.ar    
  25 C25            3.0523    -5.6423    -1.6605 C.2     
  26 N26            3.9005    -4.9469    -2.4652 N.pl3   
  27 N27            2.5375    -6.6437    -2.3126 N.2     
  28 C28            3.0209    -6.6591    -3.5814 C.ar    
  29 C29            3.9020    -5.5707    -3.6968 C.ar    
  30 C30            2.8106    -7.4931    -4.6827 C.ar    
  31 C31            3.4606    -7.2450    -5.8583 C.ar    
  32 C32            4.3309    -6.1702    -5.9728 C.ar    
  33 C33            4.5534    -5.3340    -4.8997 C.ar    
  34 S34            2.7069    -5.2487     0.0219 S.o2    
  35 O35            3.8196    -4.5030     0.4961 O.2     
  36 O36            2.2607    -6.4520     0.6320 O.2     
  37 H37           -1.1325     2.2664    -0.3765 H       
  38 H38           -1.4037    -0.1634    -0.2652 H       
  39 H39           -0.1149    -5.7175     0.1442 H       
  40 H40           -2.0415    -4.1856     0.1537 H       
  41 H41           -1.6831    -1.7534     0.0486 H       
  42 H42            6.5350     1.9887     1.3413 H       
  43 H43            4.2409     0.7731     1.9261 H       
  44 H44            2.6446     1.1606    -2.5696 H       
  45 H45            4.5129     4.9218    -1.7646 H       
  46 H46            3.5566     5.8350    -3.8403 H       
  47 H47            2.1525     4.4158    -5.2796 H       
  48 H48            1.6966     2.0818    -4.6456 H       
  49 H49            2.5441    -2.3917    -0.0819 H       
  50 H50            4.4096    -4.1587    -2.2194 H       
  51 H51            2.1357    -8.3326    -4.6044 H       
  52 H52            3.2957    -7.8921    -6.7071 H       
  53 H53            4.8372    -5.9875    -6.9092 H       
  54 H54            5.2315    -4.4987    -4.9943 H       
@<TRIPOS>BOND
   1    1    2 2
   2    1    6 1
   3    1   37 1
   4    2    3 1
   5    2   38 1
   6    3    4 1
   7    3    7 1
   8    4    5 2
   9    5    6 1
  10    5   12 1
  11    6   19 2
  12    7   24 ar
  13    7   11 ar
  14    8    9 ar
  15    8   34 1
  16    8   24 ar
  17    9   10 ar
  18    9   39 1
  19   10   11 ar
  20   10   40 1
  21   11   41 1
  22   12   13 1
  23   12   16 2
  24   13   14 1
  25   13   17 1
  26   14   15 2
  27   15   16 1
  28   15   42 1
  29   16   43 1
  30   17   20 ar
  31   17   18 ar
  32   18   23 ar
  33   18   44 1
  34   20   21 ar
  35   20   45 1
  36   21   22 ar
  37   21   46 1
  38   22   23 ar
  39   22   47 1
  40   23   48 1
  41   24   49 1
  42   25   26 1
  43   25   27 2
  44   25   34 1
  45   26   29 1
  46   26   50 1
  47   27   28 1
  48   28   29 ar
  49   28   30 ar
  50   29   33 ar
  51   30   31 ar
  52   30   51 1
  53   31   32 ar
  54   31   52 1
  55   32   33 ar
  56   32   53 1
  57   33   54 1
  58   34   35 2
  59   34   36 2

#	End of record

