#	Name: ASD01850080
#	Creating user name:	WinNT
#	Creation time:	15. 06. 2019 19:38

#	Modifying user name:	WinNT
#	Modification time:	15. 06. 2019 19:38

#	Program:	/corina/corina34_cracker 3.40 0067  02.08.2006

@<TRIPOS>MOLECULE
ASD01850080
  60   63    0    0    0
SMALL
NO_CHARGES


@<TRIPOS>ATOM
   1 C1             8.8180     2.0122     0.6730 C.ar    
   2 C2             9.0662     3.2358     0.0802 C.ar    
   3 C3             8.0981     4.2227     0.1003 C.ar    
   4 C4             6.8820     3.9854     0.7128 C.ar    
   5 C5             6.6335     2.7611     1.3050 C.ar    
   6 C6             7.6017     1.7750     1.2861 C.ar    
   7 C7             3.4112     3.4421     0.5740 C.3     
   8 N8             4.3821     3.5941     1.6606 N.am    
   9 C9             4.4235     4.7380     2.3721 C.2     
  10 C10            5.4829     4.9318     3.4262 C.3     
  11 O11            3.6082     5.6115     2.1640 O.2     
  12 C12            5.5401     6.4078     3.8263 C.3     
  13 C13            5.1433     4.0818     4.6527 C.3     
  14 C14            6.2400     4.2545     5.7082 C.3     
  15 N15            6.4013     5.6869     5.9926 N.am    
  16 C16            6.6413     6.6069     4.8725 C.3     
  17 C17            7.9454     6.2108     8.2098 C.ar    
  18 C18            8.7596     7.2972     8.0725 C.ar    
  19 C19           10.0552     7.2622     8.6005 C.ar    
  20 C20           10.5046     6.1063     9.2675 C.ar    
  21 C21            9.6507     5.0130     9.3925 C.ar    
  22 C22            8.3889     5.0730     8.8730 C.ar    
  23 C23           11.1618     8.2128     8.6365 C.2     
  24 N24           12.1512     7.6478     9.2674 N.2     
  25 N25           11.7901     6.3579     9.6702 N.pl3   
  26 C26            5.3079     2.5028     1.9737 C.3     
  27 C27            3.9774     4.0600    -0.7060 C.3     
  28 O28            5.1664     3.3641    -1.0854 O.3     
  29 S29            6.3137     6.2537     7.5461 S.o2    
  30 O30            5.9543     7.6254     7.4531 O.2     
  31 O31            5.5571     5.3001     8.2792 O.2     
  32 C32            7.3310     0.4407     1.9321 C.3     
  33 F33            8.4907    -0.3408     1.8919 F       
  34 F34            6.9463     0.6362     3.2629 F       
  35 F35            6.3046    -0.2122     1.2411 F       
  36 H36            9.5726     1.2397     0.6534 H       
  37 H37           10.0164     3.4212    -0.3984 H       
  38 H38            8.2923     5.1791    -0.3623 H       
  39 H39            6.1261     4.7566     0.7291 H       
  40 H40            3.2131     2.3830     0.4094 H       
  41 H41            2.4836     3.9479     0.8422 H       
  42 H42            6.4507     4.6255     3.0290 H       
  43 H43            5.7590     7.0147     2.9477 H       
  44 H44            4.5804     6.7083     4.2467 H       
  45 H45            4.1873     4.4041     5.0652 H       
  46 H46            5.0797     3.0331     4.3623 H       
  47 H47            5.9548     3.7306     6.6205 H       
  48 H48            7.1784     3.8491     5.3298 H       
  49 H49            7.6125     6.3934     4.4259 H       
  50 H50            6.6209     7.6352     5.2334 H       
  51 H51            8.4062     8.1792     7.5590 H       
  52 H52            9.9846     4.1210     9.9017 H       
  53 H53            7.7302     4.2229     8.9726 H       
  54 H54           11.1605     9.2072     8.2152 H       
  55 H55           12.3584     5.7405    10.1568 H       
  56 H56            4.8954     1.5612     1.6112 H       
  57 H57            5.4503     2.4455     3.0528 H       
  58 H58            3.2397     3.9812    -1.5046 H       
  59 H59            4.2114     5.1099    -0.5299 H       
  60 H60            5.5805     3.7030    -1.8908 H       
@<TRIPOS>BOND
   1    1    2 ar
   2    1    6 ar
   3    1   36 1
   4    2    3 ar
   5    2   37 1
   6    3    4 ar
   7    3   38 1
   8    4    5 ar
   9    4   39 1
  10    5    6 ar
  11    5   26 1
  12    6   32 1
  13    7    8 1
  14    7   27 1
  15    7   40 1
  16    7   41 1
  17    8    9 am
  18    8   26 1
  19    9   10 1
  20    9   11 2
  21   10   12 1
  22   10   13 1
  23   10   42 1
  24   12   16 1
  25   12   43 1
  26   12   44 1
  27   13   14 1
  28   13   45 1
  29   13   46 1
  30   14   15 1
  31   14   47 1
  32   14   48 1
  33   15   29 am
  34   15   16 1
  35   16   49 1
  36   16   50 1
  37   17   29 1
  38   17   18 ar
  39   17   22 ar
  40   18   19 ar
  41   18   51 1
  42   19   20 ar
  43   19   23 1
  44   20   21 ar
  45   20   25 1
  46   21   22 ar
  47   21   52 1
  48   22   53 1
  49   23   24 2
  50   23   54 1
  51   24   25 1
  52   25   55 1
  53   26   56 1
  54   26   57 1
  55   27   28 1
  56   27   58 1
  57   27   59 1
  58   28   60 1
  59   29   30 2
  60   29   31 2
  61   32   33 1
  62   32   34 1
  63   32   35 1

#	End of record

