#	Name: ASD01470016
#	Creating user name:	WinNT
#	Creation time:	15. 06. 2019 19:21

#	Modifying user name:	WinNT
#	Modification time:	15. 06. 2019 19:21

#	Program:	/corina/corina34_cracker 3.40 0067  02.08.2006

@<TRIPOS>MOLECULE
ASD01470016
  81   86    0    0    0
SMALL
NO_CHARGES


@<TRIPOS>ATOM
   1 N1            -1.6942     1.4209     0.5882 N.am    
   2 C2            -0.3615     0.9804     0.1849 C.3     
   3 C3             0.1872    -0.0626     1.1687 C.3     
   4 C4            -0.2757    -1.4691     0.8214 C.3     
   5 C5            -1.6479    -1.4588     0.1682 C.3     
   6 N6            -2.6130    -0.7343     0.9959 N.am    
   7 C7            -2.6498     0.6096     1.0124 C.2     
   8 O8            -3.6595     1.1275     1.4492 O.2     
   9 C9            -3.5549    -1.4874     1.8277 C.3     
  10 C10           -1.9904     2.8543     0.5246 C.3     
  11 C11           -1.7216     3.4828     1.8677 C.ar    
  12 C12           -2.9914    -1.6342     3.2176 C.ar    
  13 C13           -3.1345    -0.6169     4.1159 C.ar    
  14 C14           -2.6112    -0.7545     5.4065 C.ar    
  15 C15           -1.9426    -1.9411     5.7643 C.ar    
  16 C16           -1.8123    -2.9624     4.8262 C.ar    
  17 C17           -2.3359    -2.8065     3.5743 C.ar    
  18 C18           -0.4396     3.8850     2.1972 C.ar    
  19 C19           -0.1839     4.4631     3.4283 C.ar    
  20 C20           -1.2071     4.6416     4.3358 C.ar    
  21 C21           -2.5036     4.2379     4.0096 C.ar    
  22 C22           -2.7556     3.6610     2.7635 C.ar    
  23 C23           -2.5817     0.1044     6.5859 C.2     
  24 N24           -1.9529    -0.5367     7.5292 N.2     
  25 N25           -1.5453    -1.7925     7.0674 N.pl3   
  26 C26           -0.4361     0.3640    -1.2135 C.3     
  27 O27            1.6154    -0.0232     1.1382 O.3     
  28 C28            0.4194     1.1644    -2.1614 C.ar    
  29 C29            1.7214     0.7747    -2.4142 C.ar    
  30 C30            2.5061     1.5088    -3.2837 C.ar    
  31 C31            1.9888     2.6324    -3.9009 C.ar    
  32 C32            0.6865     3.0215    -3.6488 C.ar    
  33 C33           -0.0997     2.2849    -2.7826 C.ar    
  34 C34           -2.1270    -2.8996    -0.0202 C.3     
  35 O35           -0.3334    -2.2501     2.0167 O.3     
  36 C36           -1.2112    -3.6119    -0.9819 C.ar    
  37 C37           -0.0719    -4.2402    -0.5146 C.ar    
  38 C38            0.7682    -4.8935    -1.3968 C.ar    
  39 C39            0.4689    -4.9190    -2.7461 C.ar    
  40 C40           -0.6708    -4.2915    -3.2132 C.ar    
  41 C41           -1.5132    -3.6419    -2.3305 C.ar    
  42 C42           -3.6045     4.4259     4.9765 C.2     
  43 O43           -3.3813     5.0805     6.1325 O.3     
  44 C44           -4.5092     5.2280     7.0350 C.3     
  45 O45           -4.7111     3.9903     4.7291 O.2     
  46 H46            0.3089     1.8395     0.1615 H       
  47 H47           -0.1543     0.1846     2.1738 H       
  48 H48            0.4416    -1.9212     0.1364 H       
  49 H49           -1.5777    -0.9765    -0.8068 H       
  50 H50           -4.5045    -0.9544     1.8751 H       
  51 H51           -3.7137    -2.4747     1.3939 H       
  52 H52           -1.3577     3.3230    -0.2291 H       
  53 H53           -3.0380     2.9974     0.2597 H       
  54 H54           -3.6485     0.2896     3.8322 H       
  55 H55           -1.3013    -3.8768     5.0892 H       
  56 H56           -2.2327    -3.6013     2.8503 H       
  57 H57            0.3654     3.7469     1.4906 H       
  58 H58            0.8192     4.7748     3.6792 H       
  59 H59           -1.0061     5.0922     5.2965 H       
  60 H60           -3.7560     3.3466     2.5050 H       
  61 H61           -3.0057     1.0947     6.6627 H       
  62 H62           -1.0596    -2.4525     7.5864 H       
  63 H63           -0.0747    -0.6636    -1.1773 H       
  64 H64           -1.4694     0.3738    -1.5602 H       
  65 H65            2.0391    -0.6553     1.7349 H       
  66 H66            2.1256    -0.1031    -1.9320 H       
  67 H67            3.5236     1.2048    -3.4806 H       
  68 H68            2.6021     3.2063    -4.5797 H       
  69 H69            0.2824     3.8995    -4.1307 H       
  70 H70           -1.1171     2.5889    -2.5857 H       
  71 H71           -2.1166    -3.4145     0.9405 H       
  72 H72           -3.1413    -2.8959    -0.4195 H       
  73 H73            0.5140    -2.3300     2.4757 H       
  74 H74            0.1619    -4.2203     0.5396 H       
  75 H75            1.6587    -5.3838    -1.0318 H       
  76 H76            1.1257    -5.4289    -3.4354 H       
  77 H77           -0.9045    -4.3112    -4.2674 H       
  78 H78           -2.4037    -3.1516    -2.6954 H       
  79 H79           -5.3049     5.7800     6.5348 H       
  80 H80           -4.8758     4.2426     7.3225 H       
  81 H81           -4.1935     5.7722     7.9251 H       
@<TRIPOS>BOND
   1    1    2 1
   2    1   10 1
   3    1    7 am
   4    2    3 1
   5    2   26 1
   6    2   46 1
   7    3    4 1
   8    3   27 1
   9    3   47 1
  10    4    5 1
  11    4   35 1
  12    4   48 1
  13    5    6 1
  14    5   34 1
  15    5   49 1
  16    6    7 am
  17    6    9 1
  18    7    8 2
  19    9   12 1
  20    9   50 1
  21    9   51 1
  22   10   11 1
  23   10   52 1
  24   10   53 1
  25   11   18 ar
  26   11   22 ar
  27   12   13 ar
  28   12   17 ar
  29   13   14 ar
  30   13   54 1
  31   14   15 ar
  32   14   23 1
  33   15   16 ar
  34   15   25 1
  35   16   17 ar
  36   16   55 1
  37   17   56 1
  38   18   19 ar
  39   18   57 1
  40   19   20 ar
  41   19   58 1
  42   20   21 ar
  43   20   59 1
  44   21   22 ar
  45   21   42 1
  46   22   60 1
  47   23   24 2
  48   23   61 1
  49   24   25 1
  50   25   62 1
  51   26   28 1
  52   26   63 1
  53   26   64 1
  54   27   65 1
  55   28   29 ar
  56   28   33 ar
  57   29   30 ar
  58   29   66 1
  59   30   31 ar
  60   30   67 1
  61   31   32 ar
  62   31   68 1
  63   32   33 ar
  64   32   69 1
  65   33   70 1
  66   34   36 1
  67   34   71 1
  68   34   72 1
  69   35   73 1
  70   36   37 ar
  71   36   41 ar
  72   37   38 ar
  73   37   74 1
  74   38   39 ar
  75   38   75 1
  76   39   40 ar
  77   39   76 1
  78   40   41 ar
  79   40   77 1
  80   41   78 1
  81   42   43 1
  82   42   45 2
  83   43   44 1
  84   44   79 1
  85   44   80 1
  86   44   81 1

#	End of record

