#	Name: ASD08151062
#	Creating user name:	WinNT
#	Creation time:	15. 06. 2019 21:17

#	Modifying user name:	WinNT
#	Modification time:	15. 06. 2019 21:17

#	Program:	/corina/corina34_cracker 3.40 0067  02.08.2006

@<TRIPOS>MOLECULE
ASD08151062
  44   45    0    0    0
SMALL
NO_CHARGES


@<TRIPOS>ATOM
   1 C1            -0.0173     1.4248     0.0099 C.3     
   2 O2             0.0021    -0.0041     0.0020 O.3     
   3 C3             1.6283     3.3192     0.0043 C.ar    
   4 C4             1.3965     1.9464    -0.0008 C.ar    
   5 C5             2.4561     1.0599    -0.0152 C.ar    
   6 C6             3.7593     1.5217    -0.0243 C.ar    
   7 C7             4.0186     2.8925    -0.0189 C.ar    
   8 C8             2.9467     3.8038    -0.0047 C.ar    
   9 C9             0.4881     4.2658     0.0137 C.ar    
  10 C10            0.2803     5.0999     1.1114 C.ar    
  11 C11           -0.7848     5.9805     1.1141 C.ar    
  12 C12           -1.6443     6.0343     0.0284 C.ar    
  13 C13           -1.4415     5.2083    -1.0618 C.ar    
  14 C14           -0.3773     4.3295    -1.0775 C.ar    
  15 F15           -0.9886     6.7895     2.1768 F       
  16 C16            5.3687     3.3695    -0.0273 C.1     
  17 C17            6.4757     3.7607    -0.0343 C.1     
  18 N18            3.1863     5.1494    -0.0002 N.2     
  19 N19            4.3992     5.5886    -0.0086 N.2     
  20 N20            4.6447     6.9679    -0.0040 N.pl3   
  21 C21            3.5241     7.9114     0.0103 C.3     
  22 C22            3.2274     8.3290     1.4520 C.3     
  23 C23            6.0222     7.4667    -0.0135 C.3     
  24 C24            6.4464     7.7656    -1.4528 C.3     
  25 Cl25           5.0773     0.3920    -0.0418 Cl      
  26 H26           -0.5445     1.7859    -0.8732 H       
  27 H27           -0.5275     1.7763     0.9067 H       
  28 H28           -0.8759    -0.4094     0.0082 H       
  29 H29            2.2648    -0.0030    -0.0191 H       
  30 H30            0.9499     5.0576     1.9577 H       
  31 H31           -2.4756     6.7237     0.0339 H       
  32 H32           -2.1149     5.2540    -1.9050 H       
  33 H33           -0.2177     3.6889    -1.9322 H       
  34 H34            7.4657     4.1105    -0.0404 H       
  35 H35            3.7832     8.7923    -0.5771 H       
  36 H36            2.6426     7.4350    -0.4187 H       
  37 H37            2.9683     7.4482     2.0394 H       
  38 H38            4.1090     8.8054     1.8810 H       
  39 H39            2.3936     9.0310     1.4627 H       
  40 H40            6.0823     8.3790     0.5799 H       
  41 H41            6.6846     6.7126     0.4114 H       
  42 H42            6.3863     6.8533    -2.0462 H       
  43 H43            5.7840     8.5197    -1.8777 H       
  44 H44            7.4713     8.1367    -1.4598 H       
@<TRIPOS>BOND
   1    1    2 1
   2    1    4 1
   3    1   26 1
   4    1   27 1
   5    2   28 1
   6    3    4 ar
   7    3    8 ar
   8    3    9 1
   9    4    5 ar
  10    5    6 ar
  11    5   29 1
  12    6    7 ar
  13    6   25 1
  14    7    8 ar
  15    7   16 1
  16    8   18 1
  17    9   10 ar
  18    9   14 ar
  19   10   11 ar
  20   10   30 1
  21   11   12 ar
  22   11   15 1
  23   12   13 ar
  24   12   31 1
  25   13   14 ar
  26   13   32 1
  27   14   33 1
  28   16   17 3
  29   17   34 1
  30   18   19 2
  31   19   20 1
  32   20   21 1
  33   20   23 1
  34   21   22 1
  35   21   35 1
  36   21   36 1
  37   22   37 1
  38   22   38 1
  39   22   39 1
  40   23   24 1
  41   23   40 1
  42   23   41 1
  43   24   42 1
  44   24   43 1
  45   24   44 1

#	End of record

