#	Name: ASD03331638
#	Creating user name:	WinNT
#	Creation time:	15. 06. 2019 20:39

#	Modifying user name:	WinNT
#	Modification time:	15. 06. 2019 20:39

#	Program:	/corina/corina34_cracker 3.40 0067  02.08.2006

@<TRIPOS>MOLECULE
ASD03331638
  54   57    0    0    0
SMALL
NO_CHARGES


@<TRIPOS>ATOM
   1 C1            -0.0164     1.3611     0.0095 C.ar    
   2 C2             0.0021    -0.0041     0.0020 C.ar    
   3 C3             1.2084    -0.6953    -0.0128 C.ar    
   4 C4             2.4059    -0.0162    -0.0205 C.ar    
   5 C5             1.1895     2.0743     0.0018 C.ar    
   6 C6             1.5024     3.4552     0.0058 C.2     
   7 C7             2.4126     1.3760    -0.0136 C.ar    
   8 N8             3.4201     2.3120    -0.0183 N.pl3   
   9 C9             2.8559     3.5728    -0.0067 C.2     
  10 C10            0.5118     4.5907     0.0208 C.3     
  11 Cl11          -1.4939    -0.8848     0.0116 Cl      
  12 C12            3.6015     4.8404    -0.0080 C.2     
  13 N13            4.9491     4.8296    -0.0211 N.am    
  14 O14            3.0018     5.8988     0.0028 O.2     
  15 C15            5.6918     6.0924    -0.0223 C.3     
  16 C16            7.1711     5.8051    -0.0380 C.ar    
  17 C17            9.2145     5.3990     1.1425 C.ar    
  18 C18            7.8588     5.6623     1.1532 C.ar    
  19 C19            7.8367     5.6792    -1.2436 C.ar    
  20 C20            9.1922     5.4155    -1.2616 C.ar    
  21 C21            9.8871     5.2772    -0.0668 C.ar    
  22 N22           11.2582     5.0109    -0.0813 N.3     
  23 C23           11.5654     3.7908     0.6758 C.3     
  24 C24           11.7626     4.9230    -1.4576 C.3     
  25 C25           13.2858     4.7764    -1.4356 C.3     
  26 C26           13.6611     3.5149    -0.6530 C.3     
  27 C27           13.0827     3.6104     0.7615 C.3     
  28 C28            0.1900     4.9678     1.4682 C.3     
  29 H29           -0.9581     1.8898     0.0169 H       
  30 H30            1.2059    -1.7752    -0.0178 H       
  31 H31            3.3377    -0.5621    -0.0316 H       
  32 H32            4.3706     2.1186    -0.0281 H       
  33 H33            0.9388     5.4521    -0.4928 H       
  34 H34           -0.4025     4.2820    -0.4861 H       
  35 H35            5.4273     3.9857    -0.0297 H       
  36 H36            5.4245     6.6702    -0.9070 H       
  37 H37            5.4418     6.6618     0.8728 H       
  38 H38            9.7509     5.2873     2.0732 H       
  39 H39            7.3352     5.7572     2.0930 H       
  40 H40            7.2958     5.7869    -2.1721 H       
  41 H41            9.7113     5.3166    -2.2035 H       
  42 H42           11.1522     3.8734     1.6811 H       
  43 H43           11.1252     2.9302     0.1720 H       
  44 H44           11.3216     4.0571    -1.9514 H       
  45 H45           11.4927     5.8279    -2.0019 H       
  46 H46           13.6584     4.6954    -2.4568 H       
  47 H47           13.7284     5.6484    -0.9542 H       
  48 H48           13.2512     2.6390    -1.1558 H       
  49 H49           14.7464     3.4299    -0.5978 H       
  50 H50           13.5221     4.4641     1.2775 H       
  51 H51           13.3101     2.6964     1.3101 H       
  52 H52           -0.5265     5.7892     1.4791 H       
  53 H53           -0.2370     4.1064     1.9818 H       
  54 H54            1.1043     5.2765     1.9751 H       
@<TRIPOS>BOND
   1    1    2 ar
   2    1    5 ar
   3    1   29 1
   4    2    3 ar
   5    2   11 1
   6    3    4 ar
   7    3   30 1
   8    4    7 ar
   9    4   31 1
  10    5    7 ar
  11    5    6 1
  12    6    9 2
  13    6   10 1
  14    7    8 1
  15    8    9 1
  16    8   32 1
  17    9   12 1
  18   10   28 1
  19   10   33 1
  20   10   34 1
  21   12   13 am
  22   12   14 2
  23   13   15 1
  24   13   35 1
  25   15   16 1
  26   15   36 1
  27   15   37 1
  28   16   19 ar
  29   16   18 ar
  30   17   18 ar
  31   17   21 ar
  32   17   38 1
  33   18   39 1
  34   19   20 ar
  35   19   40 1
  36   20   21 ar
  37   20   41 1
  38   21   22 1
  39   22   24 1
  40   22   23 1
  41   23   27 1
  42   23   42 1
  43   23   43 1
  44   24   25 1
  45   24   44 1
  46   24   45 1
  47   25   26 1
  48   25   46 1
  49   25   47 1
  50   26   27 1
  51   26   48 1
  52   26   49 1
  53   27   50 1
  54   27   51 1
  55   28   52 1
  56   28   53 1
  57   28   54 1

#	End of record

