#	Name: ASD01840028
#	Creating user name:	WinNT
#	Creation time:	15. 06. 2019 19:37

#	Modifying user name:	WinNT
#	Modification time:	15. 06. 2019 19:37

#	Program:	/corina/corina34_cracker 3.40 0067  02.08.2006

@<TRIPOS>MOLECULE
ASD01840028
  34   36    0    0    0
SMALL
NO_CHARGES


@<TRIPOS>ATOM
   1 C1             0.8798     1.7395    -1.7159 C.ar    
   2 C2             1.2435     0.5392    -2.2829 C.ar    
   3 C3             2.4186    -0.0775    -1.8788 C.ar    
   4 N4             3.1889     0.4641    -0.9647 N.ar    
   5 C5             2.8897     1.6268    -0.3781 C.ar    
   6 C6             1.7211     2.3098    -0.7329 C.ar    
   7 S7             3.7653     2.5253     0.8556 S.3     
   8 C8             2.5662     3.8027     0.8874 C.2     
   9 C9             1.5615     3.5506     0.0055 C.2     
  10 C10           -0.3879     2.4358    -2.1393 C.3     
  11 C11            2.8169    -1.3917    -2.4995 C.3     
  12 N12            0.4819     4.4006    -0.1715 N.pl3   
  13 C13            2.6339     4.9444     1.7195 C.2     
  14 C14            3.8469     5.2003     2.5270 C.ar    
  15 O15            1.6934     5.7171     1.7712 O.2     
  16 C16            5.0902     4.7416     2.0890 C.ar    
  17 C17            6.2174     4.9835     2.8467 C.ar    
  18 C18            6.1173     5.6792     4.0385 C.ar    
  19 C19            4.8877     6.1363     4.4787 C.ar    
  20 C20            3.7537     5.9065     3.7274 C.ar    
  21 H21            0.6191     0.0812    -3.0358 H       
  22 H22           -1.1968     2.1610    -1.4624 H       
  23 H23           -0.2379     3.5149    -2.1071 H       
  24 H24           -0.6459     2.1350    -3.1548 H       
  25 H25            3.4288    -1.2059    -3.3822 H       
  26 H26            3.3879    -1.9760    -1.7779 H       
  27 H27            1.9221    -1.9436    -2.7872 H       
  28 H28           -0.3467     4.0610    -0.5444 H       
  29 H29            0.5545     5.3353     0.0774 H       
  30 H30            5.1696     4.1981     1.1591 H       
  31 H31            7.1800     4.6288     2.5091 H       
  32 H32            7.0027     5.8660     4.6280 H       
  33 H33            4.8162     6.6784     5.4100 H       
  34 H34            2.7953     6.2680     4.0696 H       
@<TRIPOS>BOND
   1    1    2 ar
   2    1    6 ar
   3    1   10 1
   4    2    3 ar
   5    2   21 1
   6    3    4 ar
   7    3   11 1
   8    4    5 ar
   9    5    7 1
  10    5    6 ar
  11    6    9 1
  12    7    8 1
  13    8    9 2
  14    8   13 1
  15    9   12 1
  16   10   22 1
  17   10   23 1
  18   10   24 1
  19   11   25 1
  20   11   26 1
  21   11   27 1
  22   12   28 1
  23   12   29 1
  24   13   14 1
  25   13   15 2
  26   14   16 ar
  27   14   20 ar
  28   16   17 ar
  29   16   30 1
  30   17   18 ar
  31   17   31 1
  32   18   19 ar
  33   18   32 1
  34   19   20 ar
  35   19   33 1
  36   20   34 1

#	End of record

