#	Name: ASD03331815
#	Creating user name:	WinNT
#	Creation time:	15. 06. 2019 20:39

#	Modifying user name:	WinNT
#	Modification time:	15. 06. 2019 20:39

#	Program:	/corina/corina34_cracker 3.40 0067  02.08.2006

@<TRIPOS>MOLECULE
ASD03331815
  57   59    0    0    0
SMALL
NO_CHARGES


@<TRIPOS>ATOM
   1 C1             0.0056     1.8917    -0.4550 C.2     
   2 N2             0.0738     0.5465    -0.6740 N.pl3   
   3 C3            -1.1811     0.0456    -0.5313 C.2     
   4 N4            -1.9954     1.0353    -0.2395 N.2     
   5 C5            -1.2892     2.1880    -0.1826 C.2     
   6 C6             1.1994     2.8092    -0.5172 C.3     
   7 N7             2.4154     1.9772    -0.4683 N.3     
   8 C8             2.3516     0.8849    -1.4494 C.3     
   9 C9             1.3171    -0.1562    -1.0026 C.3     
  10 C10            3.6203     2.7937    -0.6670 C.3     
  11 C11           -1.8308     3.5256     0.1159 C.2     
  12 O12           -1.0904     4.4903     0.1385 O.2     
  13 N13           -3.1465     3.6799     0.3640 N.am    
  14 C14           -3.6849     5.0097     0.6607 C.3     
  15 C15           -3.5211     5.3015     2.1301 C.2     
  16 C16           -5.1699     5.0520     0.2948 C.3     
  17 C17           -5.3291     4.8557    -1.2142 C.3     
  18 O18           -3.0054     4.4796     2.8578 O.2     
  19 N19           -3.9477     6.4758     2.6356 N.am    
  20 C20           -3.7885     6.7594     4.0640 C.3     
  21 C21           -1.5664    -1.3748    -0.6800 C.ar    
  22 C22           -0.5928    -2.3727    -0.6306 C.ar    
  23 C23           -0.9562    -3.6964    -0.7698 C.ar    
  24 C24           -2.2853    -4.0366    -0.9589 C.ar    
  25 C25           -3.2588    -3.0482    -1.0095 C.ar    
  26 C26           -2.9056    -1.7211    -0.8645 C.ar    
  27 F27           -2.6355    -5.3343    -1.0950 F       
  28 C28           -6.8156     4.7513    -1.5609 C.3     
  29 C29           -4.7161     6.0483    -1.9510 C.3     
  30 F30           -4.5538    -3.3855    -1.1951 F       
  31 H31            1.1791     3.3779    -1.4468 H       
  32 H32            1.1849     3.4910     0.3331 H       
  33 H33            2.0645     1.2870    -2.4210 H       
  34 H34            3.3304     0.4120    -1.5291 H       
  35 H35            1.6840    -0.6853    -0.1230 H       
  36 H36            1.1364    -0.8654    -1.8104 H       
  37 H37            3.6813     3.5482     0.1172 H       
  38 H38            4.5027     2.1551    -0.6263 H       
  39 H39            3.5708     3.2836    -1.6395 H       
  40 H40           -3.7369     2.9105     0.3460 H       
  41 H41           -3.1460     5.7579     0.0795 H       
  42 H42           -5.6968     4.2568     0.8222 H       
  43 H43           -5.5875     6.0170     0.5817 H       
  44 H44           -4.8202     3.9407    -1.5173 H       
  45 H45           -4.3602     7.1331     2.0536 H       
  46 H46           -4.1891     7.7488     4.2848 H       
  47 H47           -4.3274     6.0112     4.6453 H       
  48 H48           -2.7306     6.7293     4.3247 H       
  49 H49            0.4442    -2.1093    -0.4839 H       
  50 H50           -0.2024    -4.4690    -0.7315 H       
  51 H51           -3.6630    -0.9522    -0.9035 H       
  52 H52           -6.9263     4.5240    -2.6211 H       
  53 H53           -7.2718     3.9574    -0.9695 H       
  54 H54           -7.3078     5.6982    -1.3390 H       
  55 H55           -3.6570     6.1226    -1.7040 H       
  56 H56           -4.8295     5.9085    -3.0261 H       
  57 H57           -5.2250     6.9633    -1.6480 H       
@<TRIPOS>BOND
   1    1    2 1
   2    1    6 1
   3    1    5 2
   4    2    3 1
   5    2    9 1
   6    3    4 2
   7    3   21 1
   8    4    5 1
   9    5   11 1
  10    6    7 1
  11    6   31 1
  12    6   32 1
  13    7    8 1
  14    7   10 1
  15    8    9 1
  16    8   33 1
  17    8   34 1
  18    9   35 1
  19    9   36 1
  20   10   37 1
  21   10   38 1
  22   10   39 1
  23   11   12 2
  24   11   13 am
  25   13   14 1
  26   13   40 1
  27   14   15 1
  28   14   16 1
  29   14   41 1
  30   15   18 2
  31   15   19 am
  32   16   17 1
  33   16   42 1
  34   16   43 1
  35   17   28 1
  36   17   29 1
  37   17   44 1
  38   19   20 1
  39   19   45 1
  40   20   46 1
  41   20   47 1
  42   20   48 1
  43   21   22 ar
  44   21   26 ar
  45   22   23 ar
  46   22   49 1
  47   23   24 ar
  48   23   50 1
  49   24   25 ar
  50   24   27 1
  51   25   26 ar
  52   25   30 1
  53   26   51 1
  54   28   52 1
  55   28   53 1
  56   28   54 1
  57   29   55 1
  58   29   56 1
  59   29   57 1

#	End of record

