#	Name: ASD03092017
#	Creating user name:	WinNT
#	Creation time:	15. 06. 2019 20:31

#	Modifying user name:	WinNT
#	Modification time:	15. 06. 2019 20:31

#	Program:	/corina/corina34_cracker 3.40 0067  02.08.2006

@<TRIPOS>MOLECULE
ASD03092017
  37   39    0    0    0
SMALL
NO_CHARGES


@<TRIPOS>ATOM
   1 N1             0.1174     1.3380     0.0508 N.am    
   2 C2            -0.0067    -0.0256    -0.0084 C.2     
   3 C3            -1.3386    -0.3113    -0.0582 C.2     
   4 C4            -2.0404     0.9046    -0.0286 C.2     
   5 N5            -1.1718     1.8856     0.0425 N.2     
   6 C6             1.2732     2.0285     0.1120 C.2     
   7 N7             1.2579     3.3748     0.0518 N.am    
   8 C8             2.5142     4.1254     0.1184 C.3     
   9 N9            -3.4301     1.0459    -0.0626 N.pl3   
  10 C10           -4.0084     2.3098     0.0910 C.ar    
  11 C11           -5.2644     2.5689    -0.4420 C.ar    
  12 C12           -5.8354     3.8196    -0.2889 C.ar    
  13 C13           -5.1544     4.8141     0.3958 C.ar    
  14 C14           -3.9007     4.5568     0.9284 C.ar    
  15 C15           -3.3297     3.3053     0.7817 C.ar    
  16 F16           -7.0572     4.0720    -0.8073 F       
  17 C17            1.1005    -1.0064    -0.0176 C.ar    
  18 O18            2.3291     1.4372     0.2215 O.2     
  19 C19            2.2841    -0.7365    -0.7134 C.ar    
  20 C20            3.2898    -1.6872    -0.6906 C.ar    
  21 C21            3.0948    -2.8622     0.0123 C.ar    
  22 N22            1.9677    -3.0897     0.6591 N.ar    
  23 C23            0.9845    -2.2138     0.6723 C.ar    
  24 F24           -5.7129     6.0353     0.5439 F       
  25 F25           -3.2384     5.5272     1.5954 F       
  26 H26           -1.7762    -1.2973    -0.1113 H       
  27 H27            0.4150     3.8469    -0.0355 H       
  28 H28            3.0168     3.9097     1.0612 H       
  29 H29            3.1571     3.8320    -0.7115 H       
  30 H30            2.3035     5.1929     0.0549 H       
  31 H31           -3.9938     0.2673    -0.1927 H       
  32 H32           -5.7948     1.7945    -0.9761 H       
  33 H33           -2.3530     3.1052     1.1968 H       
  34 H34            2.4096     0.1896    -1.2546 H       
  35 H35            4.2169    -1.5134    -1.2165 H       
  36 H36            3.8779    -3.6057     0.0318 H       
  37 H37            0.0766    -2.4361     1.2133 H       
@<TRIPOS>BOND
   1    1    2 1
   2    1    6 am
   3    1    5 1
   4    2    3 2
   5    2   17 1
   6    3    4 1
   7    3   26 1
   8    4    5 2
   9    4    9 1
  10    6    7 am
  11    6   18 2
  12    7    8 1
  13    7   27 1
  14    8   28 1
  15    8   29 1
  16    8   30 1
  17    9   10 1
  18    9   31 1
  19   10   11 ar
  20   10   15 ar
  21   11   12 ar
  22   11   32 1
  23   12   13 ar
  24   12   16 1
  25   13   14 ar
  26   13   24 1
  27   14   15 ar
  28   14   25 1
  29   15   33 1
  30   17   19 ar
  31   17   23 ar
  32   19   20 ar
  33   19   34 1
  34   20   21 ar
  35   20   35 1
  36   21   22 ar
  37   21   36 1
  38   22   23 ar
  39   23   37 1

#	End of record

