#	Name: ASD02030804
#	Creating user name:	WinNT
#	Creation time:	15. 06. 2019 20:16

#	Modifying user name:	WinNT
#	Modification time:	15. 06. 2019 20:16

#	Program:	/corina/corina34_cracker 3.40 0067  02.08.2006

@<TRIPOS>MOLECULE
ASD02030804
  87   91    0    0    0
SMALL
NO_CHARGES


@<TRIPOS>ATOM
   1 H1            -0.3727     0.5735    -0.8854 H       
   2 C2            -0.1859     1.6471    -0.9088 C.3     
   3 C3            -0.3836     2.1951    -2.3442 C.3     
   4 C4             1.0056     2.7088    -2.8120 C.3     
   5 C5             1.9789     1.9030    -1.9449 C.3     
   6 H6             2.0531     0.8785    -2.3095 H       
   7 C7             3.3558     2.5115    -1.7539 C.3     
   8 H8             3.2677     3.5086    -1.3226 H       
   9 C9             4.0990     2.5652    -3.0917 C.3     
  10 C10            5.4855     3.1628    -2.8607 C.3     
  11 C11            6.2854     2.2910    -1.8868 C.3     
  12 H12            6.4356     1.3035    -2.3231 H       
  13 C13            7.6436     2.9622    -1.6694 C.3     
  14 C14            8.2018     2.6267    -0.2921 C.3     
  15 O15            7.7048     3.5660     0.6631 O.3     
  16 C16            7.7750     1.2182     0.1125 C.3     
  17 C17            6.2733     1.1836     0.3664 C.3     
  18 C18            5.5392     2.1534    -0.5633 C.3     
  19 C19            5.4350     3.5240     0.1086 C.3     
  20 C20            4.1337     1.5927    -0.8026 C.3     
  21 H21            4.2242     0.6091    -1.2633 H       
  22 C22            3.4127     1.4218     0.5304 C.3     
  23 C23            1.9695     0.9302     0.3288 C.3     
  24 C24            1.2710     1.9376    -0.5634 C.3     
  25 C25            1.3896     3.3369     0.0440 C.3     
  26 C26            9.7295     2.7014    -0.3309 C.3     
  27 F27           10.1241     3.9939    -0.6927 F       
  28 F28           10.2436     2.3935     0.9332 F       
  29 F29           10.2175     1.7851    -1.2687 F       
  30 C30           -1.1164     2.3678     0.0688 C.3     
  31 H31           -0.8730     3.4301     0.0859 H       
  32 C32           -0.9371     1.7809     1.4703 C.3     
  33 C33           -2.5677     2.1842    -0.3792 C.3     
  34 C34           -3.4884     3.0065     0.5248 C.3     
  35 C35           -4.9398     2.8229     0.0769 C.3     
  36 O36           -5.0806     3.2648    -1.2748 O.3     
  37 C37           -5.3197     1.3439     0.1721 C.3     
  38 C38           -6.7711     1.1603    -0.2759 C.3     
  39 C39           -7.6917     1.9826     0.6281 C.3     
  40 H40           -7.5843     1.6455     1.6591 H       
  41 C41           -9.1431     1.7991     0.1801 C.3     
  42 C42           -7.3118     3.4616     0.5329 C.3     
  43 C43           -5.8604     3.6452     0.9808 C.3     
  44 H44           -0.7299     1.3997    -3.0040 H       
  45 H45           -1.1022     3.0146    -2.3361 H       
  46 H46            1.1609     2.4926    -3.8689 H       
  47 H47            1.1080     3.7763    -2.6165 H       
  48 H48            4.1981     1.5575    -3.4952 H       
  49 H49            3.5445     3.1888    -3.7929 H       
  50 H50            6.0159     3.2218    -3.8111 H       
  51 H51            5.3817     4.1653    -2.4457 H       
  52 H52            8.3406     2.6159    -2.4326 H       
  53 H53            7.5272     4.0425    -1.7554 H       
  54 H54            8.0193     3.4138     1.5648 H       
  55 H55            8.0230     0.5209    -0.6877 H       
  56 H56            8.3025     0.9271     1.0209 H       
  57 H57            5.9040     0.1728     0.1935 H       
  58 H58            6.0785     1.4631     1.4018 H       
  59 H59            4.4910     3.9935    -0.1681 H       
  60 H60            5.4768     3.4022     1.1910 H       
  61 H61            6.2631     4.1529    -0.2185 H       
  62 H62            3.9545     0.6974     1.1385 H       
  63 H63            3.3938     2.3793     1.0509 H       
  64 H64            1.9747    -0.0488    -0.1504 H       
  65 H65            1.4602     0.8707     1.2907 H       
  66 H66            0.8802     3.3592     1.0074 H       
  67 H67            2.4420     3.5843     0.1836 H       
  68 H68            0.9313     4.0640    -0.6263 H       
  69 H69            0.0724     1.9889     1.8250 H       
  70 H70           -1.6608     2.2326     2.1487 H       
  71 H71           -1.0951     0.7029     1.4358 H       
  72 H72           -2.6752     2.5213    -1.4101 H       
  73 H73           -2.8384     1.1305    -0.3113 H       
  74 H74           -3.3809     2.6694     1.5558 H       
  75 H75           -3.2177     4.0602     0.4570 H       
  76 H76           -5.9775     3.1775    -1.6257 H       
  77 H77           -4.6638     0.7581    -0.4719 H       
  78 H78           -5.2123     1.0068     1.2031 H       
  79 H79           -6.8785     1.4974    -1.3069 H       
  80 H80           -7.0418     0.1067    -0.2081 H       
  81 H81           -9.4138     0.7454     0.2480 H       
  82 H82           -9.7990     2.3849     0.8241 H       
  83 H83           -9.2506     2.1361    -0.8509 H       
  84 H84           -7.4192     3.7987    -0.4981 H       
  85 H85           -7.9677     4.0474     1.1769 H       
  86 H86           -5.7530     3.3081     2.0118 H       
  87 H87           -5.5897     4.6989     0.9130 H       
@<TRIPOS>BOND
   1    1    2 1
   2    2   24 1
   3    2    3 1
   4    2   30 1
   5    3    4 1
   6    3   44 1
   7    3   45 1
   8    4    5 1
   9    4   46 1
  10    4   47 1
  11    5   24 1
  12    5    6 1
  13    5    7 1
  14    7   20 1
  15    7    8 1
  16    7    9 1
  17    9   10 1
  18    9   48 1
  19    9   49 1
  20   10   11 1
  21   10   50 1
  22   10   51 1
  23   11   18 1
  24   11   12 1
  25   11   13 1
  26   13   14 1
  27   13   52 1
  28   13   53 1
  29   14   15 1
  30   14   16 1
  31   14   26 1
  32   15   54 1
  33   16   17 1
  34   16   55 1
  35   16   56 1
  36   17   18 1
  37   17   57 1
  38   17   58 1
  39   18   19 1
  40   18   20 1
  41   19   59 1
  42   19   60 1
  43   19   61 1
  44   20   21 1
  45   20   22 1
  46   22   23 1
  47   22   62 1
  48   22   63 1
  49   23   24 1
  50   23   64 1
  51   23   65 1
  52   24   25 1
  53   25   66 1
  54   25   67 1
  55   25   68 1
  56   26   27 1
  57   26   28 1
  58   26   29 1
  59   30   31 1
  60   30   32 1
  61   30   33 1
  62   32   69 1
  63   32   70 1
  64   32   71 1
  65   33   34 1
  66   33   72 1
  67   33   73 1
  68   34   35 1
  69   34   74 1
  70   34   75 1
  71   35   43 1
  72   35   36 1
  73   35   37 1
  74   36   76 1
  75   37   38 1
  76   37   77 1
  77   37   78 1
  78   38   39 1
  79   38   79 1
  80   38   80 1
  81   39   40 1
  82   39   41 1
  83   39   42 1
  84   41   81 1
  85   41   82 1
  86   41   83 1
  87   42   43 1
  88   42   84 1
  89   42   85 1
  90   43   86 1
  91   43   87 1

#	End of record

