#	Name: ASD01816849
#	Creating user name:	WinNT
#	Creation time:	15. 06. 2019 19:36

#	Modifying user name:	WinNT
#	Modification time:	15. 06. 2019 19:36

#	Program:	/corina/corina34_cracker 3.40 0067  02.08.2006

@<TRIPOS>MOLECULE
ASD01816849
  47   50    0    0    0
SMALL
NO_CHARGES


@<TRIPOS>ATOM
   1 C1            -0.0168     1.3897     0.0097 C.ar    
   2 C2             0.0021    -0.0041     0.0020 C.ar    
   3 C3             1.1796    -0.6877    -0.0129 C.ar    
   4 C4             2.3927     0.0187    -0.0207 C.ar    
   5 C5             2.3768     1.4381    -0.0130 C.ar    
   6 C6             1.1385     2.1078     0.0025 C.ar    
   7 C7             3.6297    -0.6529    -0.0357 C.ar    
   8 C8             4.7711     0.0956    -0.0422 C.ar    
   9 C9             4.6871     1.4959    -0.0340 C.ar    
  10 N10            3.5238     2.1168    -0.0199 N.ar    
  11 C11            5.9353     2.2963    -0.0412 C.2     
  12 N12            5.8725     3.6426    -0.0335 N.am    
  13 O13            7.0146     1.7386    -0.0541 O.2     
  14 C14            7.1057     4.4335    -0.0406 C.3     
  15 C15            6.8588     5.8241     0.5798 C.3     
  16 O16            5.4721     6.1586     0.4955 O.3     
  17 C17            3.6922    -2.1586    -0.0438 C.3     
  18 C18            3.5760    -2.6586    -1.4607 C.ar    
  19 C19            4.7073    -2.8408    -2.2330 C.ar    
  20 C20            2.3329    -2.9469    -2.0035 C.ar    
  21 C21            2.2735    -3.4047    -3.3104 C.ar    
  22 C22            3.4483    -3.5578    -4.0250 C.ar    
  23 N23            4.6143    -3.2784    -3.4736 N.ar    
  24 Cl24           3.3884    -4.1303    -5.6628 Cl      
  25 C25            7.6932     6.8250    -0.2386 C.3     
  26 C26            8.4179     6.0076    -1.3278 C.3     
  27 C27            7.5455     4.7386    -1.4940 C.3     
  28 H28           -0.9643     1.9080     0.0170 H       
  29 H29           -0.9302    -0.5493     0.0084 H       
  30 H30            1.1803    -1.7677    -0.0184 H       
  31 H31            1.1059     3.1873     0.0090 H       
  32 H32            5.7363    -0.3889    -0.0533 H       
  33 H33            5.0108     4.0879    -0.0231 H       
  34 H34            7.8963     3.9105     0.4975 H       
  35 H35            7.1816     5.8311     1.6209 H       
  36 H36            5.2525     7.0229     0.8694 H       
  37 H37            4.6418    -2.4851     0.3800 H       
  38 H38            2.8717    -2.5595     0.5513 H       
  39 H39            5.6792    -2.6219    -1.8158 H       
  40 H40            1.4323    -2.8180    -1.4215 H       
  41 H41            1.3223    -3.6393    -3.7650 H       
  42 H42            7.0403     7.5659    -0.7001 H       
  43 H43            8.4217     7.3180     0.4050 H       
  44 H44            8.4581     6.5680    -2.2619 H       
  45 H45            9.4221     5.7398    -0.9990 H       
  46 H46            8.1338     3.9159    -1.9004 H       
  47 H47            6.6804     4.9445    -2.1243 H       
@<TRIPOS>BOND
   1    1    2 ar
   2    1    6 ar
   3    1   28 1
   4    2    3 ar
   5    2   29 1
   6    3    4 ar
   7    3   30 1
   8    4    5 ar
   9    4    7 ar
  10    5    6 ar
  11    5   10 ar
  12    6   31 1
  13    7    8 ar
  14    7   17 1
  15    8    9 ar
  16    8   32 1
  17    9   10 ar
  18    9   11 1
  19   11   12 am
  20   11   13 2
  21   12   14 1
  22   12   33 1
  23   14   15 1
  24   14   27 1
  25   14   34 1
  26   15   16 1
  27   15   25 1
  28   15   35 1
  29   16   36 1
  30   17   18 1
  31   17   37 1
  32   17   38 1
  33   18   19 ar
  34   18   20 ar
  35   19   23 ar
  36   19   39 1
  37   20   21 ar
  38   20   40 1
  39   21   22 ar
  40   21   41 1
  41   22   23 ar
  42   22   24 1
  43   25   26 1
  44   25   42 1
  45   25   43 1
  46   26   27 1
  47   26   44 1
  48   26   45 1
  49   27   46 1
  50   27   47 1

#	End of record

