#	Name: ASD08150987
#	Creating user name:	WinNT
#	Creation time:	15. 06. 2019 21:16

#	Modifying user name:	WinNT
#	Modification time:	15. 06. 2019 21:16

#	Program:	/corina/corina34_cracker 3.40 0067  02.08.2006

@<TRIPOS>MOLECULE
ASD08150987
  36   38    0    0    0
SMALL
NO_CHARGES


@<TRIPOS>ATOM
   1 C1            -0.0187     1.5258     0.0104 C.3     
   2 C2             0.0021    -0.0041     0.0020 C.3     
   3 C3             2.1210     2.0821     1.1772 C.ar    
   4 C4             1.3951     2.0474    -0.0003 C.ar    
   5 C5             1.9567     2.4883    -1.1932 C.ar    
   6 C6             3.2320     2.9647    -1.2378 C.ar    
   7 C7             4.0051     3.0177    -0.0654 C.ar    
   8 C8             5.3238     3.5044    -0.0846 C.ar    
   9 C9             6.0449     3.5416     1.0692 C.ar    
  10 C10            5.4953     3.1037     2.2723 C.ar    
  11 C11            4.2211     2.6258     2.3274 C.ar    
  12 C12            3.4481     2.5729     1.1585 C.ar    
  13 C13            1.5131     1.6160     2.4452 C.ar    
  14 C14            2.0247     0.4935     3.0954 C.ar    
  15 C15            1.4535     0.0640     4.2782 C.ar    
  16 C16            0.3746     0.7471     4.8167 C.ar    
  17 C17           -0.1355     1.8607     4.1748 C.ar    
  18 C18            0.4309     2.3017     2.9960 C.ar    
  19 F19            1.9471    -1.0232     4.9101 F       
  20 N20           -0.7292     2.0124    -1.1797 N.3     
  21 H21           -0.5289     1.8773     0.9072 H       
  22 H22            0.5293    -0.3651     0.8851 H       
  23 H23           -1.0205    -0.3814     0.0098 H       
  24 H24            0.5123    -0.3556    -0.8948 H       
  25 H25            1.3717     2.4521    -2.1003 H       
  26 H26            3.6496     3.3016    -2.1750 H       
  27 H27            5.7627     3.8467    -1.0102 H       
  28 H28            7.0579     3.9156     1.0518 H       
  29 H29            6.0883     3.1436     3.1741 H       
  30 H30            3.8079     2.2893     3.2669 H       
  31 H31            2.8650    -0.0393     2.6754 H       
  32 H32           -0.0698     0.4082     5.7409 H       
  33 H33           -0.9764     2.3890     4.5991 H       
  34 H34            0.0339     3.1743     2.4986 H       
  35 H35           -0.2753     1.6996    -2.0248 H       
  36 H36           -1.6976     1.7297    -1.1634 H       
@<TRIPOS>BOND
   1    1    2 1
   2    1    4 1
   3    1   20 1
   4    1   21 1
   5    2   22 1
   6    2   23 1
   7    2   24 1
   8    3    4 ar
   9    3   12 ar
  10    3   13 1
  11    4    5 ar
  12    5    6 ar
  13    5   25 1
  14    6    7 ar
  15    6   26 1
  16    7    8 ar
  17    7   12 ar
  18    8    9 ar
  19    8   27 1
  20    9   10 ar
  21    9   28 1
  22   10   11 ar
  23   10   29 1
  24   11   12 ar
  25   11   30 1
  26   13   14 ar
  27   13   18 ar
  28   14   15 ar
  29   14   31 1
  30   15   16 ar
  31   15   19 1
  32   16   17 ar
  33   16   32 1
  34   17   18 ar
  35   17   33 1
  36   18   34 1
  37   20   35 1
  38   20   36 1

#	End of record

