#	Name: ASD03910129
#	Creating user name:	WinNT
#	Creation time:	15. 06. 2019 20:47

#	Modifying user name:	WinNT
#	Modification time:	15. 06. 2019 20:47

#	Program:	/corina/corina34_cracker 3.40 0067  02.08.2006

@<TRIPOS>MOLECULE
ASD03910129
  40   41    0    0    0
SMALL
NO_CHARGES


@<TRIPOS>ATOM
   1 C1            -0.0184     1.5028     0.0103 C.2     
   2 C2             0.0021    -0.0041     0.0020 C.3     
   3 C3             1.4513    -0.4944    -0.0145 C.3     
   4 C4             1.4720    -2.0242    -0.0229 C.3     
   5 C5             3.0216    -3.8248    -0.0473 C.ar    
   6 C6             1.9285    -4.6845    -0.0415 C.ar    
   7 C7             2.1203    -6.0469    -0.0497 C.ar    
   8 C8             3.4196    -6.5692    -0.0645 C.ar    
   9 C9             4.5192    -5.6994    -0.0708 C.ar    
  10 O10            1.0197     2.1211     0.0037 O.2     
  11 O11           -1.1898     2.1580     0.0194 O.3     
  12 O12            2.8256    -2.4822    -0.0383 O.3     
  13 C13            4.3152    -4.3361    -0.0566 C.ar    
  14 Cl14           5.6743    -3.2561    -0.0644 Cl      
  15 Cl15           6.1335    -6.3376    -0.0884 Cl      
  16 C16            3.6295    -8.0218    -0.0728 C.2     
  17 O17            4.7559    -8.4718    -0.0856 O.2     
  18 C18            2.4456    -8.9542    -0.0655 C.3     
  19 C19            2.9374   -10.4030    -0.0766 C.3     
  20 C20            1.7535   -11.3354    -0.0693 C.2     
  21 N21            1.5160   -12.3130    -0.9702 N.pl3   
  22 C22            0.3461   -12.9233    -0.6064 C.2     
  23 C23           -0.0908   -12.2982     0.5036 C.2     
  24 N24            0.7910   -11.3357     0.8119 N.2     
  25 H25           -0.4983    -0.3791     0.8948 H       
  26 H26           -0.5153    -0.3696    -0.8850 H       
  27 H27            1.9516    -0.1193    -0.9073 H       
  28 H28            1.9686    -0.1289     0.8726 H       
  29 H29            0.9717    -2.3993     0.8699 H       
  30 H30            0.9547    -2.3897    -0.9099 H       
  31 H31            0.9265    -4.2817    -0.0301 H       
  32 H32            1.2700    -6.7127    -0.0445 H       
  33 H33           -1.1523     3.1243     0.0245 H       
  34 H34            1.8509    -8.7793     0.8310 H       
  35 H35            1.8338    -8.7715    -0.9489 H       
  36 H36            3.5322   -10.5780    -0.9731 H       
  37 H37            3.5493   -10.5857     0.8068 H       
  38 H38            2.0707   -12.5400    -1.7329 H       
  39 H39           -0.1346   -13.7474    -1.1125 H       
  40 H40           -0.9915   -12.5329     1.0513 H       
@<TRIPOS>BOND
   1    1    2 1
   2    1   10 2
   3    1   11 1
   4    2    3 1
   5    2   25 1
   6    2   26 1
   7    3    4 1
   8    3   27 1
   9    3   28 1
  10    4   12 1
  11    4   29 1
  12    4   30 1
  13    5    6 ar
  14    5   12 1
  15    5   13 ar
  16    6    7 ar
  17    6   31 1
  18    7    8 ar
  19    7   32 1
  20    8    9 ar
  21    8   16 1
  22    9   13 ar
  23    9   15 1
  24   11   33 1
  25   13   14 1
  26   16   17 2
  27   16   18 1
  28   18   19 1
  29   18   34 1
  30   18   35 1
  31   19   20 1
  32   19   36 1
  33   19   37 1
  34   20   21 1
  35   20   24 2
  36   21   22 1
  37   21   38 1
  38   22   23 2
  39   22   39 1
  40   23   24 1
  41   23   40 1

#	End of record

