#	Name: ASD01810986
#	Creating user name:	WinNT
#	Creation time:	15. 06. 2019 19:25

#	Modifying user name:	WinNT
#	Modification time:	15. 06. 2019 19:25

#	Program:	/corina/corina34_cracker 3.40 0067  02.08.2006

@<TRIPOS>MOLECULE
ASD01810986
  33   33    0    0    0
SMALL
NO_CHARGES


@<TRIPOS>ATOM
   1 C1            -0.3661     1.4462     0.0057 C.2     
   2 C2            -0.1668    -0.0177    -0.0004 C.ar    
   3 C3             1.1248    -0.5486    -0.0572 C.ar    
   4 C4             1.3127    -1.9163    -0.0630 C.ar    
   5 C5             0.2277    -2.7690    -0.0122 C.ar    
   6 C6            -1.0691    -2.2520     0.0449 C.ar    
   7 C7            -1.2659    -0.8723     0.0564 C.ar    
   8 O8             0.5932     2.1894     0.0594 O.2     
   9 O9            -1.6112     1.9567    -0.0537 O.3     
  10 C10           -2.2288    -3.1658     0.0986 C.2     
  11 O11           -2.0538    -4.3650     0.1806 O.2     
  12 O12           -3.4802    -2.6691     0.0566 O.3     
  13 C13           -4.5713    -3.6255     0.1136 C.3     
  14 C14            0.4428    -4.2606    -0.0190 C.3     
  15 C15            0.1599    -4.8103    -1.4185 C.3     
  16 C16            2.3150     0.3740    -0.1128 C.3     
  17 C17            2.6499     0.8602     1.2987 C.3     
  18 H18            2.3129    -2.3212    -0.1077 H       
  19 H19           -2.2660    -0.4673     0.1049 H       
  20 H20           -1.6914     2.9204    -0.0471 H       
  21 H21           -4.4993    -4.3097    -0.7318 H       
  22 H22           -4.5114    -4.1900     1.0441 H       
  23 H23           -5.5224    -3.0946     0.0714 H       
  24 H24            1.4744    -4.4801     0.2560 H       
  25 H25           -0.2318    -4.7282     0.6982 H       
  26 H26            0.3155    -5.8891    -1.4234 H       
  27 H27           -0.8717    -4.5907    -1.6935 H       
  28 H28            0.8345    -4.3427    -2.1357 H       
  29 H29            3.1705    -0.1609    -0.5253 H       
  30 H30            2.0820     1.2300    -0.7462 H       
  31 H31            1.7945     1.3951     1.7112 H       
  32 H32            2.8830     0.0042     1.9320 H       
  33 H33            3.5108     1.5275     1.2585 H       
@<TRIPOS>BOND
   1    1    2 1
   2    1    8 2
   3    1    9 1
   4    2    3 ar
   5    2    7 ar
   6    3    4 ar
   7    3   16 1
   8    4    5 ar
   9    4   18 1
  10    5    6 ar
  11    5   14 1
  12    6    7 ar
  13    6   10 1
  14    7   19 1
  15    9   20 1
  16   10   11 2
  17   10   12 1
  18   12   13 1
  19   13   21 1
  20   13   22 1
  21   13   23 1
  22   14   15 1
  23   14   24 1
  24   14   25 1
  25   15   26 1
  26   15   27 1
  27   15   28 1
  28   16   17 1
  29   16   29 1
  30   16   30 1
  31   17   31 1
  32   17   32 1
  33   17   33 1

#	End of record

