#	Name: ASD01140502
#	Creating user name:	WinNT
#	Creation time:	15. 06. 2019 19:01

#	Modifying user name:	WinNT
#	Modification time:	15. 06. 2019 19:01

#	Program:	/corina/corina34_cracker 3.40 0067  02.08.2006

@<TRIPOS>MOLECULE
ASD01140502
  45   46    0    0    0
SMALL
NO_CHARGES


@<TRIPOS>ATOM
   1 C1            -0.0169     1.3962     0.0097 C.ar    
   2 C2             0.0021    -0.0041     0.0020 C.ar    
   3 C3             1.2081    -0.6754    -0.0131 C.ar    
   4 C4             2.3877     1.4298    -0.0131 C.ar    
   5 C5             1.1885     2.1077     0.0020 C.ar    
   6 O6             1.4989    -2.0094    -0.0230 O.3     
   7 C7             2.8789    -2.1043     0.3764 C.3     
   8 O8             3.4428    -0.8455    -0.0357 O.3     
   9 C9             2.4064     0.0414    -0.0208 C.ar    
  10 C10           -1.2974     2.1158     0.0197 C.2     
  11 C11           -1.3130     3.4697     0.0271 C.2     
  12 C12           -2.5426     4.1607     0.0367 C.2     
  13 C13           -2.5583     5.5185     0.0442 C.2     
  14 C14           -3.7923     6.2120     0.0538 C.2     
  15 N15           -3.8079     7.5596     0.0612 N.am    
  16 O16           -4.8398     5.5909     0.0554 O.2     
  17 C17           -2.5477     8.3068     0.0593 C.3     
  18 C18           -5.0850     8.2774     0.0712 C.3     
  19 C19           -2.1159     8.5747    -1.3838 C.3     
  20 C20           -0.7998     9.3550    -1.3858 C.3     
  21 C21           -5.5227     8.5194     1.5171 C.3     
  22 C22           -6.8565     9.2690     1.5275 C.3     
  23 H23           -0.9252    -0.5577     0.0083 H       
  24 H24            3.3168     1.9803    -0.0190 H       
  25 H25            1.1785     3.1876     0.0076 H       
  26 H26            2.9573    -2.2234     1.4571 H       
  27 H27            3.3703    -2.9305    -0.1375 H       
  28 H28           -2.2264     1.5650     0.0211 H       
  29 H29           -0.3840     4.0205     0.0257 H       
  30 H30           -3.4716     3.6099     0.0382 H       
  31 H31           -1.6293     6.0693     0.0428 H       
  32 H32           -2.6866     9.2548     0.5790 H       
  33 H33           -1.7789     7.7238     0.5663 H       
  34 H34           -4.9681     9.2340    -0.4380 H       
  35 H35           -5.8402     7.6824    -0.4423 H       
  36 H36           -1.9770     7.6267    -1.9035 H       
  37 H37           -2.8847     9.1577    -1.8909 H       
  38 H38           -0.9387    10.3030    -0.8662 H       
  39 H39           -0.0310     8.7720    -0.8788 H       
  40 H40           -0.4922     9.5459    -2.4140 H       
  41 H41           -5.6396     7.5628     2.0263 H       
  42 H42           -4.7675     9.1145     2.0306 H       
  43 H43           -6.7396    10.2256     1.0183 H       
  44 H44           -7.6117     8.6740     1.0140 H       
  45 H45           -7.1683     9.4414     2.5576 H       
@<TRIPOS>BOND
   1    1    2 ar
   2    1    5 ar
   3    1   10 1
   4    2    3 ar
   5    2   23 1
   6    3    6 1
   7    3    9 ar
   8    4    5 ar
   9    4    9 ar
  10    4   24 1
  11    5   25 1
  12    6    7 1
  13    7    8 1
  14    7   26 1
  15    7   27 1
  16    8    9 1
  17   10   11 2
  18   10   28 1
  19   11   12 1
  20   11   29 1
  21   12   13 2
  22   12   30 1
  23   13   14 1
  24   13   31 1
  25   14   15 am
  26   14   16 2
  27   15   17 1
  28   15   18 1
  29   17   19 1
  30   17   32 1
  31   17   33 1
  32   18   21 1
  33   18   34 1
  34   18   35 1
  35   19   20 1
  36   19   36 1
  37   19   37 1
  38   20   38 1
  39   20   39 1
  40   20   40 1
  41   21   22 1
  42   21   41 1
  43   21   42 1
  44   22   43 1
  45   22   44 1
  46   22   45 1

#	End of record

