#	Name: ASD02030130
#	Creating user name:	WinNT
#	Creation time:	15. 06. 2019 20:14

#	Modifying user name:	WinNT
#	Modification time:	15. 06. 2019 20:14

#	Program:	/corina/corina34_cracker 3.40 0067  02.08.2006

@<TRIPOS>MOLECULE
ASD02030130
  65   69    0    0    0
SMALL
NO_CHARGES


@<TRIPOS>ATOM
   1 N1            -0.1893     1.3517     0.0121 N.am    
   2 C2            -0.3569    -0.1082    -0.0099 C.3     
   3 C3            -1.2963    -0.5110     1.1336 C.3     
   4 N4            -2.4932     0.3402     1.0799 N.am    
   5 C5            -2.3257     1.8001     1.1018 C.3     
   6 C6            -1.3865     2.2027    -0.0360 C.3     
   7 C7             1.0399     1.9001     0.0807 C.2     
   8 C8             2.2258     1.0361     0.2614 C.2     
   9 N9             3.4591     1.4472     0.4632 N.2     
  10 N10            2.2330    -0.3096     0.2542 N.2     
  11 C11            3.4695    -0.6929     0.4463 C.2     
  12 N12            4.2250     0.4170     0.5754 N.pl3   
  13 O13            1.1734     3.1052    -0.0060 O.2     
  14 C14           -3.7224    -0.2083     1.0112 C.2     
  15 C15           -3.8714    -1.6658     0.8949 C.2     
  16 O16           -4.7087     0.5031     1.0457 O.2     
  17 C17           -0.9825     3.6695     0.1264 C.3     
  18 C18           -2.0931     2.0068    -1.3788 C.3     
  19 C19            5.6090     0.4451     0.7940 C.ar    
  20 C20            6.2705     1.6604     0.9092 C.ar    
  21 C21            7.6346     1.6848     1.1246 C.ar    
  22 C22            8.3414     0.5006     1.2251 C.ar    
  23 C23            7.6854    -0.7114     1.1108 C.ar    
  24 C24            6.3205    -0.7424     0.9016 C.ar    
  25 C25           -5.0447    -2.3174     0.6872 C.2     
  26 C26           -4.7146    -3.7415     0.6404 C.ar    
  27 C27           -3.3226    -3.8173     0.8311 C.ar    
  28 O28           -2.8622    -2.5580     0.9724 O.3     
  29 C29           -5.4628    -4.9072     0.4589 C.ar    
  30 C30           -4.8261    -6.1337     0.4680 C.ar    
  31 C31           -3.4467    -6.2053     0.6573 C.ar    
  32 C32           -2.7018    -5.0614     0.8365 C.ar    
  33 C33           -6.4105    -1.6984     0.5365 C.3     
  34 N34           -5.5687    -7.3080     0.2872 N.am    
  35 C35           -6.6895    -7.2881    -0.4610 C.2     
  36 O36           -7.0064    -6.2772    -1.0518 O.2     
  37 C37           -7.5489    -8.5217    -0.5637 C.3     
  38 H38           -0.7893    -0.4126    -0.9630 H       
  39 H39            0.6116    -0.5897     0.1256 H       
  40 H40           -1.5850    -1.5558     1.0190 H       
  41 H41           -0.7906    -0.3712     2.0890 H       
  42 H42           -3.2942     2.2815     0.9663 H       
  43 H43           -1.8933     2.1044     2.0550 H       
  44 H44            3.8207    -1.7130     0.4958 H       
  45 H45           -0.3710     3.7809     1.0219 H       
  46 H46           -0.4111     3.9877    -0.7456 H       
  47 H47           -1.8774     4.2848     0.2187 H       
  48 H48           -2.9888     2.6271    -1.4119 H       
  49 H49           -1.4219     2.2944    -2.1880 H       
  50 H50           -2.3721     0.9594    -1.4931 H       
  51 H51            5.7191     2.5857     0.8301 H       
  52 H52            8.1497     2.6298     1.2143 H       
  53 H53            9.4081     0.5222     1.3929 H       
  54 H54            8.2401    -1.6346     1.1898 H       
  55 H55            5.8086    -1.6892     0.8127 H       
  56 H56           -6.5313    -4.8503     0.3127 H       
  57 H57           -2.9573    -7.1681     0.6634 H       
  58 H58           -1.6339    -5.1305     0.9817 H       
  59 H59           -6.5975    -1.4825    -0.5154 H       
  60 H60           -7.1664    -2.3919     0.9050 H       
  61 H61           -6.4554    -0.7731     1.1108 H       
  62 H62           -5.2761    -8.1353     0.7006 H       
  63 H63           -8.2966    -8.5106     0.2293 H       
  64 H64           -8.0475    -8.5375    -1.5329 H       
  65 H65           -6.9244    -9.4092    -0.4618 H       
@<TRIPOS>BOND
   1    1    2 1
   2    1    7 am
   3    1    6 1
   4    2    3 1
   5    2   38 1
   6    2   39 1
   7    3    4 1
   8    3   40 1
   9    3   41 1
  10    4    5 1
  11    4   14 am
  12    5    6 1
  13    5   42 1
  14    5   43 1
  15    6   17 1
  16    6   18 1
  17    7    8 1
  18    7   13 2
  19    8    9 2
  20    8   10 1
  21    9   12 1
  22   10   11 2
  23   11   12 1
  24   11   44 1
  25   12   19 1
  26   14   15 1
  27   14   16 2
  28   15   25 2
  29   15   28 1
  30   17   45 1
  31   17   46 1
  32   17   47 1
  33   18   48 1
  34   18   49 1
  35   18   50 1
  36   19   20 ar
  37   19   24 ar
  38   20   21 ar
  39   20   51 1
  40   21   22 ar
  41   21   52 1
  42   22   23 ar
  43   22   53 1
  44   23   24 ar
  45   23   54 1
  46   24   55 1
  47   25   26 1
  48   25   33 1
  49   26   27 ar
  50   26   29 ar
  51   27   28 1
  52   27   32 ar
  53   29   30 ar
  54   29   56 1
  55   30   31 ar
  56   30   34 1
  57   31   32 ar
  58   31   57 1
  59   32   58 1
  60   33   59 1
  61   33   60 1
  62   33   61 1
  63   34   35 am
  64   34   62 1
  65   35   36 2
  66   35   37 1
  67   37   63 1
  68   37   64 1
  69   37   65 1

#	End of record

