#	Name: ASD01028361
#	Creating user name:	WinNT
#	Creation time:	15. 06. 2019 18:57

#	Modifying user name:	WinNT
#	Modification time:	15. 06. 2019 18:57

#	Program:	/corina/corina34_cracker 3.40 0067  02.08.2006

@<TRIPOS>MOLECULE
ASD01028361
  40   44    0    0    0
SMALL
NO_CHARGES


@<TRIPOS>ATOM
   1 C1            -0.0168     1.3902     0.0097 C.ar    
   2 C2             0.0021    -0.0041     0.0020 C.ar    
   3 C3             1.1992     2.0968     0.0019 C.ar    
   4 C4             2.3853     1.3751    -0.0133 C.ar    
   5 C5             2.3316    -0.0081    -0.0203 C.ar    
   6 N6             1.1873    -0.6471    -0.0128 N.ar    
   7 N7             1.2133     3.4891     0.0088 N.pl3   
   8 C8             2.4893     4.2088     0.0005 C.3     
   9 C9             2.2290     5.6931     0.0104 C.2     
  10 N10            2.1015     6.4728     1.1062 N.pl3   
  11 C11            1.8746     7.7465     0.6410 C.2     
  12 N12            1.8758     7.6773    -0.6801 N.2     
  13 N13            2.0912     6.4607    -1.0418 N.2     
  14 N14            2.1552     6.2285     2.4799 N.2     
  15 C15            1.9900     7.2102     3.3386 C.2     
  16 C16            1.7551     8.5280     2.8925 C.2     
  17 C17            1.6982     8.7971     1.5614 C.2     
  18 C18            2.0508     6.9289     4.7941 C.ar    
  19 C19            2.2818     5.6313     5.2466 C.ar    
  20 C20            2.3378     5.3755     6.6017 C.ar    
  21 C21            2.1653     6.4043     7.5100 C.ar    
  22 C22            1.9357     7.6943     7.0665 C.ar    
  23 C23            1.8829     7.9624     5.7137 C.ar    
  24 C24           -1.3389    -0.5614     0.0119 C.2     
  25 C25           -2.3124     0.3307     0.0260 C.2     
  26 S26           -1.6781     1.9653     0.0215 S.3     
  27 H27            3.3369     1.8859    -0.0200 H       
  28 H28            3.2522    -0.5727    -0.0321 H       
  29 H29            0.3782     3.9826     0.0191 H       
  30 H30            3.0665     3.9352     0.8837 H       
  31 H31            3.0498     3.9442    -0.8962 H       
  32 H32            1.6205     9.3242     3.6097 H       
  33 H33            1.5186     9.8038     1.2142 H       
  34 H34            2.4163     4.8272     4.5382 H       
  35 H35            2.5164     4.3701     6.9535 H       
  36 H36            2.2095     6.1996     8.5695 H       
  37 H37            1.8013     8.4937     7.7801 H       
  38 H38            1.7037     8.9700     5.3685 H       
  39 H39           -1.5259    -1.6251     0.0076 H       
  40 H40           -3.3640     0.0851     0.0347 H       
@<TRIPOS>BOND
   1    1    2 ar
   2    1    3 ar
   3    1   26 1
   4    2   24 1
   5    2    6 ar
   6    3    4 ar
   7    3    7 1
   8    4    5 ar
   9    4   27 1
  10    5    6 ar
  11    5   28 1
  12    7    8 1
  13    7   29 1
  14    8    9 1
  15    8   30 1
  16    8   31 1
  17    9   10 1
  18    9   13 2
  19   10   11 1
  20   10   14 1
  21   11   12 2
  22   11   17 1
  23   12   13 1
  24   14   15 2
  25   15   16 1
  26   15   18 1
  27   16   17 2
  28   16   32 1
  29   17   33 1
  30   18   19 ar
  31   18   23 ar
  32   19   20 ar
  33   19   34 1
  34   20   21 ar
  35   20   35 1
  36   21   22 ar
  37   21   36 1
  38   22   23 ar
  39   22   37 1
  40   23   38 1
  41   24   25 2
  42   24   39 1
  43   25   26 1
  44   25   40 1

#	End of record

