#	Name: ASD03740247
#	Creating user name:	WinNT
#	Creation time:	15. 06. 2019 20:46

#	Modifying user name:	WinNT
#	Modification time:	15. 06. 2019 20:46

#	Program:	/corina/corina34_cracker 3.40 0067  02.08.2006

@<TRIPOS>MOLECULE
ASD03740247
  65   68    0    0    0
SMALL
NO_CHARGES


@<TRIPOS>ATOM
   1 C1            -3.6025    -2.2607     1.3902 C.3     
   2 S2            -2.0310    -1.6502     0.7207 S.o2    
   3 N3            -0.9777    -1.7355     1.9958 N.am    
   4 C4            -1.2229    -0.9966     3.1542 C.ar    
   5 C5            -1.1022    -1.5998     4.4009 C.ar    
   6 C6            -1.3434    -0.8717     5.5463 C.ar    
   7 C7            -1.5819     0.3432     3.0599 C.ar    
   8 C8            -1.8236     1.0751     4.2028 C.ar    
   9 C9            -1.7088     0.4706     5.4539 C.ar    
  10 C10           -1.9692     1.2558     6.6849 C.ar    
  11 C11           -1.8497     0.6535     7.9462 C.ar    
  12 N12           -2.0745     1.3240     9.0489 N.ar    
  13 C13           -2.3277     2.5943     6.5983 C.ar    
  14 C14           -2.5633     3.2924     7.7934 C.ar    
  15 C15           -2.4275     2.6115     9.0277 C.ar    
  16 C16           -2.6661     3.3165    10.2322 C.ar    
  17 C17           -2.5250     2.6296    11.5364 C.2     
  18 C18           -3.6222     2.2724    12.2337 C.2     
  19 C19           -3.4106     1.5732    13.5603 C.3     
  20 C20           -1.9876     1.3265    14.0061 C.2     
  21 O21           -1.7429     0.7101    15.1736 O.3     
  22 C22           -0.3507     0.5087    15.5337 C.3     
  23 N23           -0.9984     1.7156    13.2497 N.2     
  24 C24           -1.1833     2.3293    12.0723 C.2     
  25 O25           -0.2072     2.6560    11.4230 O.2     
  26 C26           -3.0314     4.6509    10.1852 C.ar    
  27 C27           -3.1677     5.3100     8.9707 C.ar    
  28 C28           -3.5667     6.7631     8.9529 C.3     
  29 C29           -3.9042     7.2167    10.3746 C.3     
  30 C30           -2.4087     7.6034     8.4108 C.3     
  31 C31           -4.7923     6.9444     8.0552 C.3     
  32 C32           -2.9312     4.6542     7.7817 C.ar    
  33 O33           -3.0631     5.3137     6.6026 O.3     
  34 C34           -1.8590     5.6837     5.9279 C.3     
  35 O35           -1.5049    -2.5656    -0.2303 O.2     
  36 O36           -2.1184    -0.2618     0.4307 O.2     
  37 H37           -3.8734    -1.6777     2.2705 H       
  38 H38           -4.3821    -2.1618     0.6349 H       
  39 H39           -3.4963    -3.3094     1.6676 H       
  40 H40           -0.1904    -2.2991     1.9375 H       
  41 H41           -0.8195    -2.6397     4.4720 H       
  42 H42           -1.2499    -1.3409     6.5146 H       
  43 H43           -1.6711     0.8110     2.0906 H       
  44 H44           -2.1018     2.1161     4.1291 H       
  45 H45           -1.5663    -0.3867     8.0096 H       
  46 H46           -2.4222     3.0839     5.6403 H       
  47 H47           -4.6147     2.4776    11.8605 H       
  48 H48           -3.9033     2.1655    14.3314 H       
  49 H49           -3.9167     0.6090    13.5130 H       
  50 H50           -0.2943     0.0015    16.4968 H       
  51 H51            0.1368    -0.1008    14.7729 H       
  52 H52            0.1503     1.4744    15.6017 H       
  53 H53           -3.2132     5.1863    11.1054 H       
  54 H54           -3.0310     7.0875    11.0141 H       
  55 H55           -4.1928     8.2678    10.3617 H       
  56 H56           -4.7292     6.6181    10.7608 H       
  57 H57           -2.1682     7.2802     7.3980 H       
  58 H58           -2.6973     8.6544     8.3980 H       
  59 H59           -1.5355     7.4742     9.0504 H       
  60 H60           -5.6194     6.3512     8.4453 H       
  61 H61           -5.0767     7.9965     8.0368 H       
  62 H62           -4.5540     6.6148     7.0440 H       
  63 H63           -2.0994     6.3303     5.0840 H       
  64 H64           -1.2044     6.2156     6.6183 H       
  65 H65           -1.3547     4.7873     5.5668 H       
@<TRIPOS>BOND
   1    1    2 1
   2    1   37 1
   3    1   38 1
   4    1   39 1
   5    2    3 am
   6    2   35 2
   7    2   36 2
   8    3    4 1
   9    3   40 1
  10    4    5 ar
  11    4    7 ar
  12    5    6 ar
  13    5   41 1
  14    6    9 ar
  15    6   42 1
  16    7    8 ar
  17    7   43 1
  18    8    9 ar
  19    8   44 1
  20    9   10 1
  21   10   11 ar
  22   10   13 ar
  23   11   12 ar
  24   11   45 1
  25   12   15 ar
  26   13   14 ar
  27   13   46 1
  28   14   15 ar
  29   14   32 ar
  30   15   16 ar
  31   16   17 1
  32   16   26 ar
  33   17   18 2
  34   17   24 1
  35   18   19 1
  36   18   47 1
  37   19   20 1
  38   19   48 1
  39   19   49 1
  40   20   21 1
  41   20   23 2
  42   21   22 1
  43   22   50 1
  44   22   51 1
  45   22   52 1
  46   23   24 1
  47   24   25 2
  48   26   27 ar
  49   26   53 1
  50   27   28 1
  51   27   32 ar
  52   28   29 1
  53   28   30 1
  54   28   31 1
  55   29   54 1
  56   29   55 1
  57   29   56 1
  58   30   57 1
  59   30   58 1
  60   30   59 1
  61   31   60 1
  62   31   61 1
  63   31   62 1
  64   32   33 1
  65   33   34 1
  66   34   63 1
  67   34   64 1
  68   34   65 1

#	End of record

