#	Name: ASD03160011
#	Creating user name:	WinNT
#	Creation time:	15. 06. 2019 20:33

#	Modifying user name:	WinNT
#	Modification time:	15. 06. 2019 20:33

#	Program:	/corina/corina34_cracker 3.40 0067  02.08.2006

@<TRIPOS>MOLECULE
ASD03160011
  34   35    0    0    0
SMALL
NO_CHARGES


@<TRIPOS>ATOM
   1 Br1            0.0000     0.0000     0.0000 Br      
   2 H2             0.0000     1.5100     0.0000 H       
   3 S3             9.9085    12.4120     9.9003 S.3     
   4 N4             9.6348    11.1034     8.8492 N.pl3   
   5 N5            11.9010    11.2476     8.9896 N.2     
   6 N6            12.5690    13.0342    10.4279 N.2     
   7 C7            10.8627    10.6501     8.4996 C.2     
   8 C8             8.4004    10.6003     8.4332 C.ar    
   9 C9            11.0130     9.5009     7.5814 C.ar    
  10 C10            7.5278    11.4053     7.7108 C.ar    
  11 C11            8.0440     9.2916     8.7355 C.ar    
  12 C12           10.0450     9.2506     6.6076 C.ar    
  13 C13           12.1263     8.6651     7.6811 C.ar    
  14 C14           11.6758    12.2825     9.8161 C.2     
  15 C15            6.3082    10.9042     7.3007 C.ar    
  16 C16            6.8228     8.7973     8.3220 C.ar    
  17 C17           10.1915     8.1769     5.7538 C.ar    
  18 C18           12.2607     7.5948     6.8210 C.ar    
  19 C19            5.9547     9.6029     7.6078 C.ar    
  20 C20           11.2949     7.3492     5.8612 C.ar    
  21 C21           13.9983    12.7759    10.2368 C.3     
  22 H22            7.8031    12.4217     7.4709 H       
  23 H23            8.7216     8.6617     9.2928 H       
  24 H24            9.1831     9.8958     6.5230 H       
  25 H25           12.8811     8.8560     8.4296 H       
  26 H26            5.6294    11.5294     6.7396 H       
  27 H27            6.5453     7.7801     8.5563 H       
  28 H28            9.4430     7.9820     5.0000 H       
  29 H29           13.1219     6.9475     6.8968 H       
  30 H30            5.0000     9.2138     7.2860 H       
  31 H31           11.4048     6.5100     5.1903 H       
  32 H32           14.5780    13.4932    10.8177 H       
  33 H33           14.2325    11.7648    10.5698 H       
  34 H34           14.2478    12.8775     9.1806 H       
@<TRIPOS>BOND
   1    1    2 1
   2    3    4 1
   3    3   14 1
   4    4    7 1
   5    4    8 1
   6    5    7 2
   7    5   14 1
   8    6   14 2
   9    6   21 1
  10    7    9 1
  11    8   10 ar
  12    8   11 ar
  13    9   12 ar
  14    9   13 ar
  15   10   15 ar
  16   10   22 1
  17   11   16 ar
  18   11   23 1
  19   12   17 ar
  20   12   24 1
  21   13   18 ar
  22   13   25 1
  23   15   19 ar
  24   15   26 1
  25   16   19 ar
  26   16   27 1
  27   17   20 ar
  28   17   28 1
  29   18   20 ar
  30   18   29 1
  31   19   30 1
  32   20   31 1
  33   21   32 1
  34   21   33 1
  35   21   34 1

#	End of record

