#	Name: ASD01883222
#	Creating user name:	WinNT
#	Creation time:	15. 06. 2019 19:46

#	Modifying user name:	WinNT
#	Modification time:	15. 06. 2019 19:46

#	Program:	/corina/corina34_cracker 3.40 0067  02.08.2006

@<TRIPOS>MOLECULE
ASD01883222
  45   46    0    0    0
SMALL
NO_CHARGES


@<TRIPOS>ATOM
   1 N1            -0.0021     1.3163     0.0485 N.am    
   2 C2            -0.0002    -0.0086    -0.1882 C.2     
   3 C3            -1.2212    -0.7270    -0.1950 C.2     
   4 C4            -2.4168    -0.0280     0.0486 C.2     
   5 C5            -2.3525     1.3586     0.2898 C.2     
   6 C6            -1.1566     1.9896     0.2888 C.2     
   7 O7             1.0511    -0.5898    -0.3968 O.2     
   8 C8            -1.2376    -2.1368    -0.4455 C.1     
   9 N9            -1.2506    -3.2553    -0.6442 N.1     
  10 C10            1.2682     2.0461     0.0530 C.3     
  11 C11            1.5705     2.5524    -1.3588 C.3     
  12 C12            2.8971     3.3145    -1.3542 C.3     
  13 C13            3.2614     3.7131    -2.7857 C.3     
  14 C14            2.7597     4.5723    -0.4938 C.3     
  15 C15           -3.7149    -0.7337     0.0513 C.ar    
  16 C16           -4.4625    -0.8201     1.2285 C.ar    
  17 C17           -5.6721    -1.4782     1.2274 C.ar    
  18 C18           -6.1500    -2.0564     0.0559 C.ar    
  19 C19           -5.4081    -1.9726    -1.1178 C.ar    
  20 C20           -4.2003    -1.3110    -1.1249 C.ar    
  21 N21           -7.3764    -2.7225     0.0583 N.am    
  22 C22           -8.3895    -2.2665     0.8211 C.2     
  23 C23           -9.7444    -2.9219     0.7448 C.3     
  24 O24           -8.2109    -1.3285     1.5690 O.2     
  25 H25           -3.2576     1.9166     0.4790 H       
  26 H26           -1.1196     3.0528     0.4748 H       
  27 H27            1.1983     2.8930     0.7355 H       
  28 H28            2.0680     1.3814     0.3796 H       
  29 H29            1.6404     1.7054    -2.0414 H       
  30 H30            0.7707     3.2171    -1.6854 H       
  31 H31            3.6807     2.6775    -0.9439 H       
  32 H32            2.4778     4.3502    -3.1960 H       
  33 H33            4.2065     4.2561    -2.7824 H       
  34 H34            3.3592     2.8171    -3.3986 H       
  35 H35            2.5003     4.2883     0.5260 H       
  36 H36            3.7049     5.1152    -0.4905 H       
  37 H37            1.9762     5.2093    -0.9041 H       
  38 H38           -4.0918    -0.3717     2.1384 H       
  39 H39           -6.2503    -1.5457     2.1371 H       
  40 H40           -5.7818    -2.4229    -2.0255 H       
  41 H41           -3.6249    -1.2459    -2.0365 H       
  42 H42           -7.4995    -3.5138    -0.4891 H       
  43 H43           -9.7124    -3.7396     0.0248 H       
  44 H44          -10.0149    -3.3122     1.7260 H       
  45 H45          -10.4857    -2.1881     0.4286 H       
@<TRIPOS>BOND
   1    1    2 am
   2    1   10 1
   3    1    6 1
   4    2    3 1
   5    2    7 2
   6    3    4 2
   7    3    8 1
   8    4    5 1
   9    4   15 1
  10    5    6 2
  11    5   25 1
  12    6   26 1
  13    8    9 3
  14   10   11 1
  15   10   27 1
  16   10   28 1
  17   11   12 1
  18   11   29 1
  19   11   30 1
  20   12   13 1
  21   12   14 1
  22   12   31 1
  23   13   32 1
  24   13   33 1
  25   13   34 1
  26   14   35 1
  27   14   36 1
  28   14   37 1
  29   15   16 ar
  30   15   20 ar
  31   16   17 ar
  32   16   38 1
  33   17   18 ar
  34   17   39 1
  35   18   19 ar
  36   18   21 1
  37   19   20 ar
  38   19   40 1
  39   20   41 1
  40   21   22 am
  41   21   42 1
  42   22   23 1
  43   22   24 2
  44   23   43 1
  45   23   44 1
  46   23   45 1

#	End of record

