#	Name: ASD01140006
#	Creating user name:	WinNT
#	Creation time:	15. 06. 2019 18:59

#	Modifying user name:	WinNT
#	Modification time:	15. 06. 2019 18:59

#	Program:	/corina/corina34_cracker 3.40 0067  02.08.2006

@<TRIPOS>MOLECULE
ASD01140006
  19   20    0    0    0
SMALL
NO_CHARGES


@<TRIPOS>ATOM
   1 N1            -0.0169     1.3929     0.0097 N.pl3   
   2 N2             0.0021    -0.0041     0.0020 N.2     
   3 C3             0.5446    -0.6814     0.9575 C.2     
   4 C4             1.0930    -0.0614     2.1570 C.2     
   5 C5             1.7904     1.0631     2.2039 C.2     
   6 C6             2.1330     1.9000     1.0395 C.ar    
   7 C7             1.2133     2.0807     0.0016 C.ar    
   8 C8             3.3751     2.5249     0.9746 C.ar    
   9 C9             3.6774     3.3540    -0.0942 C.ar    
  10 C10            2.7491     3.5648    -1.0925 C.ar    
  11 C11            1.5174     2.9273    -1.0462 C.ar    
  12 H12           -0.8568     1.8781     0.0164 H       
  13 H13            0.5947    -1.7561     0.8637 H       
  14 H14            0.9134    -0.5658     3.0949 H       
  15 H15            2.1356     1.3938     3.1723 H       
  16 H16            4.1024     2.3643     1.7566 H       
  17 H17            4.6423     3.8365    -0.1454 H       
  18 H18            2.9820     4.2275    -1.9128 H       
  19 H19            0.7950     3.0946    -1.8314 H       
@<TRIPOS>BOND
   1    1    2 1
   2    1    7 1
   3    1   12 1
   4    2    3 2
   5    3    4 1
   6    3   13 1
   7    4    5 2
   8    4   14 1
   9    5    6 1
  10    5   15 1
  11    6    7 ar
  12    6    8 ar
  13    7   11 ar
  14    8    9 ar
  15    8   16 1
  16    9   10 ar
  17    9   17 1
  18   10   11 ar
  19   10   18 1
  20   11   19 1

#	End of record

