#	Name: ASD01948015
#	Creating user name:	WinNT
#	Creation time:	15. 06. 2019 20:13

#	Modifying user name:	WinNT
#	Modification time:	15. 06. 2019 20:13

#	Program:	/corina/corina34_cracker 3.40 0067  02.08.2006

@<TRIPOS>MOLECULE
ASD01948015
  16   15    0    0    0
SMALL
NO_CHARGES


@<TRIPOS>ATOM
   1 C1            -0.0154     1.3072     0.0066 C.2     
   2 C2             0.1987    -0.0078    -0.0098 C.2     
   3 N3            -0.9434    -0.9428    -0.1411 N.pl3   
   4 O4            -2.0778    -0.5093    -0.2339 O.2     
   5 O5            -0.7477    -2.1449    -0.1561 O.2     
   6 S6             1.3426     2.4190     0.1627 S.3     
   7 C7             1.0496     3.1973     1.7748 C.3     
   8 S8            -1.6558     1.9346    -0.1350 S.3     
   9 C9            -1.6216     2.8119    -1.7224 C.3     
  10 H10            1.2046    -0.3923     0.0725 H       
  11 H11            1.8882     3.8485     2.0217 H       
  12 H12            0.1329     3.7855     1.7330 H       
  13 H13            0.9517     2.4257     2.5384 H       
  14 H14           -0.8188     3.5491    -1.7128 H       
  15 H15           -1.4500     2.0983    -2.5282 H       
  16 H16           -2.5754     3.3154    -1.8799 H       
@<TRIPOS>BOND
   1    1    2 2
   2    1    6 1
   3    1    8 1
   4    2    3 1
   5    2   10 1
   6    3    4 2
   7    3    5 2
   8    6    7 1
   9    7   11 1
  10    7   12 1
  11    7   13 1
  12    8    9 1
  13    9   14 1
  14    9   15 1
  15    9   16 1

#	End of record

