#	Name: ASD01150301
#	Creating user name:	WinNT
#	Creation time:	15. 06. 2019 19:04

#	Modifying user name:	WinNT
#	Modification time:	15. 06. 2019 19:04

#	Program:	/corina/corina34_cracker 3.40 0067  02.08.2006

@<TRIPOS>MOLECULE
ASD01150301
  68   70    0    0    0
SMALL
NO_CHARGES


@<TRIPOS>ATOM
   1 C1            -0.0158     1.3123     0.0093 C.2     
   2 N2             0.0021    -0.0041     0.0020 N.2     
   3 C3            -1.2464    -0.4793     0.0114 C.2     
   4 C4            -2.1135     0.6063     0.0255 C.2     
   5 N5            -1.3045     1.7452     0.0298 N.pl3   
   6 N6             1.0958     2.1231     0.0030 N.3     
   7 C7             2.3292     1.3253    -0.0137 C.3     
   8 C8             1.0586     3.0586    -1.1289 C.3     
   9 C9            -1.7378     3.0773     0.0436 C.ar    
  10 N10           -1.6125    -1.8198     0.0070 N.am    
  11 C11           -3.5221     0.5666     0.0383 C.2     
  12 O12           -4.2300     1.7166     0.0508 O.3     
  13 O13           -4.1011    -0.5048     0.0381 O.2     
  14 C14           -5.6543     1.6016     0.0633 C.3     
  15 C15           -6.0931     0.8352     1.3127 C.3     
  16 C16           -6.2786     2.9984     0.0763 C.3     
  17 C17           -6.1162     0.8481    -1.1856 C.3     
  18 C18           -1.4631     3.8869     1.1378 C.ar    
  19 C19           -1.8918     5.1998     1.1485 C.ar    
  20 C20           -2.5938     5.7082     0.0710 C.ar    
  21 C21           -2.8689     4.9045    -1.0201 C.ar    
  22 C22           -2.4380     3.5924    -1.0392 C.ar    
  23 C23           -0.6642    -2.7773    -0.0075 C.2     
  24 C24           -1.0523    -4.1986    -0.0121 C.2     
  25 O25            0.5120    -2.4682    -0.0167 O.2     
  26 C26           -0.2212    -5.2806    -0.0262 C.2     
  27 O27           -0.9701    -6.3877    -0.0257 O.3     
  28 C28           -2.2769    -6.0820    -0.0117 C.2     
  29 C29           -2.4162    -4.7476     0.0038 C.2     
  30 C30            1.2851    -5.2352    -0.0400 C.3     
  31 C31           -3.4073    -7.0785    -0.0077 C.3     
  32 C32           -4.2780    -6.8672    -1.2480 C.3     
  33 C33           -2.8360    -8.4978    -0.0215 C.3     
  34 C34           -4.2557    -6.8824     1.2503 C.3     
  35 H35            2.3464     0.7016    -0.9074 H       
  36 H36            3.1923     1.9909    -0.0183 H       
  37 H37            2.3639     0.6915     0.8724 H       
  38 H38            0.1696     3.6849    -1.0537 H       
  39 H39            1.9487     3.6875    -1.1100 H       
  40 H40            1.0299     2.4977    -2.0631 H       
  41 H41           -2.5506    -2.0664     0.0143 H       
  42 H42           -5.7640     1.3720     2.2025 H       
  43 H43           -7.1795     0.7475     1.3223 H       
  44 H44           -5.6483    -0.1598     1.3035 H       
  45 H45           -5.9660     3.5444    -0.8138 H       
  46 H46           -7.3651     2.9107     0.0859 H       
  47 H47           -5.9496     3.5352     0.9661 H       
  48 H48           -5.6714    -0.1469    -1.1949 H       
  49 H49           -7.2026     0.7604    -1.1760 H       
  50 H50           -5.8036     1.3941    -2.0757 H       
  51 H51           -0.9152     3.4903     1.9797 H       
  52 H52           -1.6787     5.8299     1.9993 H       
  53 H53           -2.9282     6.7351     0.0819 H       
  54 H54           -3.4173     5.3044    -1.8601 H       
  55 H55           -2.6531     2.9651    -1.8916 H       
  56 H56           -3.3413    -4.1904     0.0180 H       
  57 H57            1.6578    -5.2303     0.9842 H       
  58 H58            1.6702    -6.1108    -0.5626 H       
  59 H59            1.6166    -4.3317    -0.5517 H       
  60 H60           -3.6736    -7.0069    -2.1443 H       
  61 H61           -5.0956    -7.5880    -1.2451 H       
  62 H62           -4.6850    -5.8560    -1.2382 H       
  63 H63           -2.2158    -8.6484     0.8621 H       
  64 H64           -3.6537    -9.2186    -0.0186 H       
  65 H65           -2.2317    -8.6375    -0.9178 H       
  66 H66           -4.6627    -5.8713     1.2601 H       
  67 H67           -5.0733    -7.6033     1.2532 H       
  68 H68           -3.6354    -7.0330     2.1339 H       
@<TRIPOS>BOND
   1    1    2 2
   2    1    6 1
   3    1    5 1
   4    2    3 1
   5    3    4 2
   6    3   10 1
   7    4    5 1
   8    4   11 1
   9    5    9 1
  10    6    7 1
  11    6    8 1
  12    7   35 1
  13    7   36 1
  14    7   37 1
  15    8   38 1
  16    8   39 1
  17    8   40 1
  18    9   18 ar
  19    9   22 ar
  20   10   23 am
  21   10   41 1
  22   11   12 1
  23   11   13 2
  24   12   14 1
  25   14   15 1
  26   14   16 1
  27   14   17 1
  28   15   42 1
  29   15   43 1
  30   15   44 1
  31   16   45 1
  32   16   46 1
  33   16   47 1
  34   17   48 1
  35   17   49 1
  36   17   50 1
  37   18   19 ar
  38   18   51 1
  39   19   20 ar
  40   19   52 1
  41   20   21 ar
  42   20   53 1
  43   21   22 ar
  44   21   54 1
  45   22   55 1
  46   23   24 1
  47   23   25 2
  48   24   26 2
  49   24   29 1
  50   26   27 1
  51   26   30 1
  52   27   28 1
  53   28   29 2
  54   28   31 1
  55   29   56 1
  56   30   57 1
  57   30   58 1
  58   30   59 1
  59   31   32 1
  60   31   33 1
  61   31   34 1
  62   32   60 1
  63   32   61 1
  64   32   62 1
  65   33   63 1
  66   33   64 1
  67   33   65 1
  68   34   66 1
  69   34   67 1
  70   34   68 1

#	End of record

