#	Name: ASD01140032
#	Creating user name:	WinNT
#	Creation time:	15. 06. 2019 18:59

#	Modifying user name:	WinNT
#	Modification time:	15. 06. 2019 18:59

#	Program:	/corina/corina34_cracker 3.40 0067  02.08.2006

@<TRIPOS>MOLECULE
ASD01140032
   8    7    0    0    0
SMALL
NO_CHARGES


@<TRIPOS>ATOM
   1 C1            -0.0187     1.5258     0.0104 C.3     
   2 C2             0.0021    -0.0041     0.0020 C.3     
   3 F3             1.2938     2.0100     0.0005 F       
   4 F4            -0.6953     1.9892    -1.1230 F       
   5 F5            -0.6735     1.9769     1.1615 F       
   6 Cl6            0.8741    -0.6013     1.4627 Cl      
   7 Br7           -1.8423    -0.6846     0.0160 Br      
   8 H8             0.5123    -0.3556    -0.8948 H       
@<TRIPOS>BOND
   1    1    2 1
   2    1    3 1
   3    1    4 1
   4    1    5 1
   5    2    6 1
   6    2    7 1
   7    2    8 1

#	End of record

