#	Name: ASD03731433
#	Creating user name:	WinNT
#	Creation time:	15. 06. 2019 20:45

#	Modifying user name:	WinNT
#	Modification time:	15. 06. 2019 20:45

#	Program:	/corina/corina34_cracker 3.40 0067  02.08.2006

@<TRIPOS>MOLECULE
ASD03731433
  69   75    0    0    0
SMALL
NO_CHARGES


@<TRIPOS>ATOM
   1 O1            -0.0174     1.4356     0.0099 O.3     
   2 C2             0.0021    -0.0041     0.0020 C.3     
   3 O3             1.2461    -0.3262    -0.6470 O.3     
   4 C4             2.0710     0.7345    -0.4034 C.ar    
   5 C5             1.2935     1.8178    -0.0005 C.ar    
   6 C6             3.4452     0.8649    -0.4936 C.ar    
   7 C7             4.0602     2.0747    -0.1856 C.ar    
   8 C8             3.2723     3.1522     0.2076 C.ar    
   9 C9             1.9024     3.0234     0.3045 C.ar    
  10 O10            5.3831     2.4065    -0.1922 O.3     
  11 C11            4.2098     4.3069     0.4393 C.3     
  12 C12            5.5129     3.8410    -0.2242 C.3     
  13 N13            3.6127     6.4762     0.8417 N.am    
  14 C14            3.6993     5.5834    -0.1645 C.2     
  15 C15            4.3992     4.6044     1.8972 C.ar    
  16 C16            4.8378     3.8614     2.9705 C.ar    
  17 C17            4.9039     4.4334     4.2285 C.ar    
  18 C18            4.5284     5.7527     4.4051 C.ar    
  19 C19            4.0877     6.5009     3.3334 C.ar    
  20 C20            4.0181     5.9334     2.0634 C.ar    
  21 O21            3.4201     5.7739    -1.3293 O.2     
  22 C22            3.1483     7.8554     0.6736 C.3     
  23 C23            1.6327     7.9114     0.8755 C.3     
  24 C24            1.1476     9.3518     0.6999 C.3     
  25 N25           -0.3075     9.4055     0.8938 N.3     
  26 C26           -0.8099    10.7765     0.7323 C.3     
  27 C27           -2.3255    10.7922     0.9410 C.3     
  28 C28           -3.7871    14.7825     0.4710 C.ar    
  29 C29           -3.7122    13.9311    -0.6295 C.ar    
  30 C30           -3.2398    12.6438    -0.4720 C.ar    
  31 C31           -2.8408    12.1986     0.7754 C.ar    
  32 C32           -2.9134    13.0394     1.8713 C.ar    
  33 C33           -3.3842    14.3286     1.7252 C.ar    
  34 C34           -4.2883    16.1695     0.3066 C.ar    
  35 C35           -4.3632    17.0209     1.4071 C.ar    
  36 C36           -4.8302    18.3099     1.2485 C.ar    
  37 C37           -5.2239    18.7569     0.0001 C.ar    
  38 C38           -5.1521    17.9159    -1.0957 C.ar    
  39 C39           -4.6804    16.6270    -0.9497 C.ar    
  40 H40           -0.0105    -0.3928     1.0203 H       
  41 H41           -0.8401    -0.3953    -0.5687 H       
  42 H42            4.0448     0.0222    -0.8046 H       
  43 H43            1.3032     3.8652     0.6186 H       
  44 H44            6.3787     4.1643     0.3536 H       
  45 H45            5.5749     4.2013    -1.2510 H       
  46 H46            5.1300     2.8312     2.8302 H       
  47 H47            5.2475     3.8510     5.0706 H       
  48 H48            4.5803     6.1993     5.3870 H       
  49 H49            3.7954     7.5303     3.4796 H       
  50 H50            3.6366     8.4954     1.4085 H       
  51 H51            3.3941     8.2017    -0.3303 H       
  52 H52            1.1443     7.2714     0.1406 H       
  53 H53            1.3868     7.5650     1.8794 H       
  54 H54            1.6360     9.9917     1.4348 H       
  55 H55            1.3935     9.6981    -0.3040 H       
  56 H56           -0.7795     8.7713     0.2668 H       
  57 H57           -0.3351    11.4263     1.4674 H       
  58 H58           -0.5776    11.1327    -0.2713 H       
  59 H59           -2.8002    10.1423     0.2059 H       
  60 H60           -2.5577    10.4360     1.9446 H       
  61 H61           -4.0235    14.2777    -1.6039 H       
  62 H62           -3.1813    11.9831    -1.3243 H       
  63 H63           -2.6009    12.6866     2.8430 H       
  64 H64           -3.4398    14.9845     2.5814 H       
  65 H65           -4.0567    16.6726     2.3824 H       
  66 H66           -4.8887    18.9707     2.1008 H       
  67 H67           -5.5890    19.7663    -0.1194 H       
  68 H68           -5.4611    18.2699    -2.0681 H       
  69 H69           -4.6198    15.9728    -1.8069 H       
@<TRIPOS>BOND
   1    1    2 1
   2    1    5 1
   3    2    3 1
   4    2   40 1
   5    2   41 1
   6    3    4 1
   7    4    5 ar
   8    4    6 ar
   9    5    9 ar
  10    6    7 ar
  11    6   42 1
  12    7    8 ar
  13    7   10 1
  14    8    9 ar
  15    8   11 1
  16    9   43 1
  17   10   12 1
  18   11   12 1
  19   11   14 1
  20   11   15 1
  21   12   44 1
  22   12   45 1
  23   13   14 am
  24   13   20 1
  25   13   22 1
  26   14   21 2
  27   15   16 ar
  28   15   20 ar
  29   16   17 ar
  30   16   46 1
  31   17   18 ar
  32   17   47 1
  33   18   19 ar
  34   18   48 1
  35   19   20 ar
  36   19   49 1
  37   22   23 1
  38   22   50 1
  39   22   51 1
  40   23   24 1
  41   23   52 1
  42   23   53 1
  43   24   25 1
  44   24   54 1
  45   24   55 1
  46   25   26 1
  47   25   56 1
  48   26   27 1
  49   26   57 1
  50   26   58 1
  51   27   31 1
  52   27   59 1
  53   27   60 1
  54   28   29 ar
  55   28   33 ar
  56   28   34 1
  57   29   30 ar
  58   29   61 1
  59   30   31 ar
  60   30   62 1
  61   31   32 ar
  62   32   33 ar
  63   32   63 1
  64   33   64 1
  65   34   35 ar
  66   34   39 ar
  67   35   36 ar
  68   35   65 1
  69   36   37 ar
  70   36   66 1
  71   37   38 ar
  72   37   67 1
  73   38   39 ar
  74   38   68 1
  75   39   69 1

#	End of record

