#	Name: ASD01917360
#	Creating user name:	WinNT
#	Creation time:	15. 06. 2019 20:09

#	Modifying user name:	WinNT
#	Modification time:	15. 06. 2019 20:09

#	Program:	/corina/corina34_cracker 3.40 0067  02.08.2006

@<TRIPOS>MOLECULE
ASD01917360
  49   52    0    0    0
SMALL
NO_CHARGES


@<TRIPOS>ATOM
   1 C1            -0.0902     1.6545     0.1413 C.3     
   2 C2             0.1211     0.1379    -0.0104 C.3     
   3 C3             1.1367    -0.3309     1.0334 C.3     
   4 C4             0.6742     0.0595     2.4385 C.3     
   5 C5             0.4391     1.5794     2.4849 C.3     
   6 C6             1.6441     2.2556     1.7910 C.3     
   7 C7             1.3051     2.3037     0.2902 C.3     
   8 C8            -0.7469     1.8760     1.5295 C.3     
   9 C9            -0.8860     2.2434    -0.9949 C.2     
  10 O10           -0.4041     3.1179    -1.6835 O.2     
  11 N11           -2.1332     1.7984    -1.2458 N.am    
  12 C12           -4.2838     2.5300    -2.0823 C.ar    
  13 C13           -2.9086     2.4112    -2.2367 C.ar    
  14 C14           -2.3128     2.9111    -3.3916 C.ar    
  15 C15           -3.1222     3.5096    -4.3436 C.ar    
  16 C16           -4.4835     3.5903    -4.1180 C.ar    
  17 N17           -5.0172     3.1068    -3.0130 N.ar    
  18 C18            1.1724     1.8955     4.7869 C.2     
  19 C19            0.9541     2.3936     6.1618 C.ar    
  20 C20            1.9356     2.2114     7.1373 C.ar    
  21 C21            1.7253     2.6790     8.4192 C.ar    
  22 C22            0.5433     3.3269     8.7373 C.ar    
  23 C23           -0.4326     3.5101     7.7744 C.ar    
  24 C24           -0.2318     3.0530     6.4881 C.ar    
  25 O25            2.2084     1.3260     4.5042 O.2     
  26 N26            0.2228     2.0730     3.8472 N.am    
  27 Cl27           2.9442     2.4538     9.6345 Cl      
  28 H28           -0.8258    -0.3795     0.1440 H       
  29 H29            0.4983    -0.0796    -1.0096 H       
  30 H30            1.2393    -1.4145     0.9755 H       
  31 H31            2.1025     0.1316     0.8301 H       
  32 H32           -0.2543    -0.4605     2.6745 H       
  33 H33            1.4409    -0.2133     3.1637 H       
  34 H34            1.7802     3.2658     2.1769 H       
  35 H35            2.5476     1.6676     1.9523 H       
  36 H36            2.0436     1.7391    -0.2789 H       
  37 H37            1.2761     3.3374    -0.0543 H       
  38 H38           -1.0899     2.9048     1.6400 H       
  39 H39           -1.5645     1.1736     1.6917 H       
  40 H40           -2.4933     1.0534    -0.7397 H       
  41 H41           -4.7574     2.1419    -1.1927 H       
  42 H42           -1.2460     2.8346    -3.5415 H       
  43 H43           -2.6944     3.9087    -5.2514 H       
  44 H44           -5.1190     4.0558    -4.8568 H       
  45 H45            2.8573     1.7056     6.8901 H       
  46 H46            0.3828     3.6904     9.7416 H       
  47 H47           -1.3523     4.0159     8.0290 H       
  48 H48           -0.9930     3.2009     5.7364 H       
  49 H49           -0.6039     2.5275     4.0728 H       
@<TRIPOS>BOND
   1    1    2 1
   2    1    7 1
   3    1    8 1
   4    1    9 1
   5    2    3 1
   6    2   28 1
   7    2   29 1
   8    3    4 1
   9    3   30 1
  10    3   31 1
  11    4    5 1
  12    4   32 1
  13    4   33 1
  14    5    6 1
  15    5    8 1
  16    5   26 1
  17    6    7 1
  18    6   34 1
  19    6   35 1
  20    7   36 1
  21    7   37 1
  22    8   38 1
  23    8   39 1
  24    9   10 2
  25    9   11 am
  26   11   13 1
  27   11   40 1
  28   12   13 ar
  29   12   17 ar
  30   12   41 1
  31   13   14 ar
  32   14   15 ar
  33   14   42 1
  34   15   16 ar
  35   15   43 1
  36   16   17 ar
  37   16   44 1
  38   18   19 1
  39   18   25 2
  40   18   26 am
  41   19   20 ar
  42   19   24 ar
  43   20   21 ar
  44   20   45 1
  45   21   22 ar
  46   21   27 1
  47   22   23 ar
  48   22   46 1
  49   23   24 ar
  50   23   47 1
  51   24   48 1
  52   26   49 1

#	End of record

