#	Name: ASD09610057
#	Creating user name:	WinNT
#	Creation time:	15. 06. 2019 21:22

#	Modifying user name:	WinNT
#	Modification time:	15. 06. 2019 21:22

#	Program:	/corina/corina34_cracker 3.40 0067  02.08.2006

@<TRIPOS>MOLECULE
ASD09610057
  46   47    0    0    0
SMALL
NO_CHARGES


@<TRIPOS>ATOM
   1 C1            -0.0184     1.5028     0.0103 C.2     
   2 C2             0.0021    -0.0041     0.0020 C.3     
   3 C3             1.4513    -0.4944    -0.0145 C.3     
   4 O4             1.0236     2.1234     0.0037 O.2     
   5 N5            -1.1946     2.1607     0.0195 N.am    
   6 C6             1.4717    -2.0012    -0.0227 C.ar    
   7 C7             1.4696    -2.6846    -1.2249 C.ar    
   8 C8             1.4884    -4.0697    -1.2343 C.ar    
   9 C9             1.5093    -4.7705    -0.0318 C.ar    
  10 C10            1.5113    -4.0798     1.1689 C.ar    
  11 C11            1.4982    -2.6970     1.1711 C.ar    
  12 O12            1.5274    -6.1303    -0.0358 O.3     
  13 C13            1.5483    -6.7826     1.2354 C.3     
  14 C14            1.5658    -8.2412     1.0383 C.1     
  15 C15            1.5797    -9.4046     0.8811 C.1     
  16 O16            1.4859    -4.7433    -2.4157 O.3     
  17 C17            1.4635    -3.9586    -3.6098 C.3     
  18 C18           -1.2145     3.6256     0.0275 C.3     
  19 C19           -1.1067     4.1253    -1.3528 C.1     
  20 N20           -1.0236     4.5110    -2.4181 N.1     
  21 C21           -2.5060     4.1071     0.6367 C.ar    
  22 C22           -2.5049     5.1976     1.4863 C.ar    
  23 C23           -3.6891     5.6397     2.0454 C.ar    
  24 C24           -4.8757     4.9906     1.7546 C.ar    
  25 C25           -4.8762     3.8992     0.9042 C.ar    
  26 C26           -3.6922     3.4615     0.3413 C.ar    
  27 Cl27          -6.3634     5.5449     2.4568 Cl      
  28 H28           -0.4983    -0.3791     0.8948 H       
  29 H29           -0.5153    -0.3696    -0.8850 H       
  30 H30            1.9516    -0.1193    -0.9073 H       
  31 H31            1.9686    -0.1289     0.8726 H       
  32 H32           -2.0280     1.6644     0.0207 H       
  33 H33            1.4530    -2.1385    -2.1565 H       
  34 H34            1.5275    -4.6212     2.1033 H       
  35 H35            1.5042    -2.1596     2.1079 H       
  36 H36            2.4397    -6.4795     1.7847 H       
  37 H37            0.6600    -6.5031     1.8019 H       
  38 H38            1.5922   -10.4450     0.7404 H       
  39 H39            0.5648    -3.3419    -3.6225 H       
  40 H40            2.3446    -3.3176    -3.6400 H       
  41 H41            1.4639    -4.6179    -4.4778 H       
  42 H42           -0.3749     3.9971     0.6150 H       
  43 H43           -1.5784     5.7040     1.7135 H       
  44 H44           -3.6880     6.4915     2.7093 H       
  45 H45           -5.8023     3.3921     0.6768 H       
  46 H46           -3.6931     2.6123    -0.3259 H       
@<TRIPOS>BOND
   1    1    2 1
   2    1    4 2
   3    1    5 am
   4    2    3 1
   5    2   28 1
   6    2   29 1
   7    3    6 1
   8    3   30 1
   9    3   31 1
  10    5   18 1
  11    5   32 1
  12    6    7 ar
  13    6   11 ar
  14    7    8 ar
  15    7   33 1
  16    8    9 ar
  17    8   16 1
  18    9   10 ar
  19    9   12 1
  20   10   11 ar
  21   10   34 1
  22   11   35 1
  23   12   13 1
  24   13   14 1
  25   13   36 1
  26   13   37 1
  27   14   15 3
  28   15   38 1
  29   16   17 1
  30   17   39 1
  31   17   40 1
  32   17   41 1
  33   18   19 1
  34   18   21 1
  35   18   42 1
  36   19   20 3
  37   21   22 ar
  38   21   26 ar
  39   22   23 ar
  40   22   43 1
  41   23   24 ar
  42   23   44 1
  43   24   25 ar
  44   24   27 1
  45   25   26 ar
  46   25   45 1
  47   26   46 1

#	End of record

