#	Name: ASD07590001
#	Creating user name:	WinNT
#	Creation time:	15. 06. 2019 21:11

#	Modifying user name:	WinNT
#	Modification time:	15. 06. 2019 21:11

#	Program:	/corina/corina34_cracker 3.40 0067  02.08.2006

@<TRIPOS>MOLECULE
ASD07590001
  74   77    0    0    0
SMALL
NO_CHARGES


@<TRIPOS>ATOM
   1 C1            -0.0187     1.5259     0.0104 C.3     
   2 C2             0.0021    -0.0041     0.0020 C.3     
   3 C3             0.6538    -0.5027    -1.2888 C.3     
   4 C4             2.1174    -0.0535    -1.3295 C.3     
   5 C5             2.1605     1.4559    -1.1596 C.2     
   6 C6             2.8397     2.1535    -2.0222 C.2     
   7 C7             2.9483     3.6492    -1.9607 C.3     
   8 C8             2.7629     4.1100    -0.5107 C.3     
   9 C9             1.4168     3.5722    -0.0055 C.3     
  10 C10            1.4191     2.0527    -0.0005 C.3     
  11 C11            1.0866     4.0920     1.3909 C.3     
  12 C12            1.1494     5.6259     1.4578 C.3     
  13 C13            2.5444     6.0353     1.0248 C.3     
  14 C14            2.6972     5.6260    -0.4646 C.3     
  15 C15            3.9831     6.3612    -0.8585 C.3     
  16 C16            3.8155     7.7453    -0.1740 C.3     
  17 C17            2.8404     7.5317     1.0158 C.3     
  18 C18            3.5867     5.3049     1.8739 C.3     
  19 C19            2.1080     1.5810     1.2817 C.3     
  20 C20            3.5025     7.9595     2.3272 C.3     
  21 C21            2.5405     7.7078     3.4900 C.3     
  22 C22            3.8463     9.4490     2.2628 C.3     
  23 C23            4.6191     9.8488     3.5213 C.3     
  24 C24            4.9629    11.3383     3.4569 C.3     
  25 C25            5.7357    11.7382     4.7154 C.3     
  26 C26            7.0825    11.0126     4.7389 C.3     
  27 C27            5.9709    13.2500     4.7106 C.3     
  28 O28            0.5922    -1.9297    -1.3330 O.3     
  29 H29           -0.5452     1.8874    -0.8729 H       
  30 H30           -0.5282     1.8778     0.9075 H       
  31 H31            0.5720    -0.3639     0.8586 H       
  32 H32           -1.0189    -0.3811     0.0621 H       
  33 H33            0.1231    -0.0896    -2.1467 H       
  34 H34            2.6702    -0.5300    -0.5199 H       
  35 H35            2.5591    -0.3279    -2.2875 H       
  36 H36            3.3492     1.6324    -2.8192 H       
  37 H37            3.9307     3.9578    -2.3179 H       
  38 H38            2.1757     4.0963    -2.5863 H       
  39 H39            3.5760     3.7351     0.1108 H       
  40 H40            0.6342     3.9122    -0.6838 H       
  41 H41            0.0831     3.7653     1.6634 H       
  42 H42            1.7996     3.6759     2.1026 H       
  43 H43            0.4095     6.0577     0.7838 H       
  44 H44            0.9639     5.9610     2.4783 H       
  45 H45            1.8490     5.9858    -1.0470 H       
  46 H46            4.8589     5.8420    -0.4694 H       
  47 H47            4.0481     6.4716    -1.9409 H       
  48 H48            4.7781     8.0990     0.1953 H       
  49 H49            3.3981     8.4636    -0.8796 H       
  50 H50            1.9203     8.0938     0.8556 H       
  51 H51            3.4790     4.2291     1.7354 H       
  52 H52            4.5861     5.6126     1.5664 H       
  53 H53            3.4375     5.5526     2.9249 H       
  54 H54            2.1075     0.4915     1.3147 H       
  55 H55            3.1354     1.9445     1.2970 H       
  56 H56            1.5717     1.9709     2.1468 H       
  57 H57            4.4146     7.3823     2.4788 H       
  58 H58            1.6284     8.2850     3.3383 H       
  59 H59            2.2956     6.6467     3.5358 H       
  60 H60            3.0122     8.0126     4.4242 H       
  61 H61            4.4597     9.6426     1.3829 H       
  62 H62            2.9272    10.0316     2.2004 H       
  63 H63            4.0057     9.6552     4.4012 H       
  64 H64            5.5382     9.2662     3.5837 H       
  65 H65            5.5763    11.5320     2.5770 H       
  66 H66            4.0438    11.9210     3.3945 H       
  67 H67            5.1592    11.4630     5.5986 H       
  68 H68            6.9149     9.9356     4.7423 H       
  69 H69            7.6590    11.2879     3.8557 H       
  70 H70            7.6331    11.2975     5.6354 H       
  71 H71            5.0114    13.7669     4.6939 H       
  72 H72            6.5215    13.5349     5.6072 H       
  73 H73            6.5473    13.5253     3.8274 H       
  74 H74            0.9880    -2.3161    -2.1262 H       
@<TRIPOS>BOND
   1    1    2 1
   2    1   10 1
   3    1   29 1
   4    1   30 1
   5    2    3 1
   6    2   31 1
   7    2   32 1
   8    3    4 1
   9    3   28 1
  10    3   33 1
  11    4    5 1
  12    4   34 1
  13    4   35 1
  14    5    6 2
  15    5   10 1
  16    6    7 1
  17    6   36 1
  18    7    8 1
  19    7   37 1
  20    7   38 1
  21    8    9 1
  22    8   14 1
  23    8   39 1
  24    9   10 1
  25    9   11 1
  26    9   40 1
  27   10   19 1
  28   11   12 1
  29   11   41 1
  30   11   42 1
  31   12   13 1
  32   12   43 1
  33   12   44 1
  34   13   18 1
  35   13   14 1
  36   13   17 1
  37   14   15 1
  38   14   45 1
  39   15   16 1
  40   15   46 1
  41   15   47 1
  42   16   17 1
  43   16   48 1
  44   16   49 1
  45   17   20 1
  46   17   50 1
  47   18   51 1
  48   18   52 1
  49   18   53 1
  50   19   54 1
  51   19   55 1
  52   19   56 1
  53   20   21 1
  54   20   22 1
  55   20   57 1
  56   21   58 1
  57   21   59 1
  58   21   60 1
  59   22   23 1
  60   22   61 1
  61   22   62 1
  62   23   24 1
  63   23   63 1
  64   23   64 1
  65   24   25 1
  66   24   65 1
  67   24   66 1
  68   25   26 1
  69   25   27 1
  70   25   67 1
  71   26   68 1
  72   26   69 1
  73   26   70 1
  74   27   71 1
  75   27   72 1
  76   27   73 1
  77   28   74 1

#	End of record

