#	Name: ASD01230157
#	Creating user name:	WinNT
#	Creation time:	15. 06. 2019 19:11

#	Modifying user name:	WinNT
#	Modification time:	15. 06. 2019 19:11

#	Program:	/corina/corina34_cracker 3.40 0067  02.08.2006

@<TRIPOS>MOLECULE
ASD01230157
  33   35    0    0    0
SMALL
NO_CHARGES


@<TRIPOS>ATOM
   1 C1            -0.0169     1.3984     0.0097 C.ar    
   2 C2             0.0021    -0.0041     0.0020 C.ar    
   3 C3             1.2330    -0.6605    -0.0133 C.ar    
   4 C4             2.3883     0.1054    -0.0203 C.ar    
   5 C5             2.2901     1.4833    -0.0119 C.ar    
   6 N6             1.1147     2.0836     0.0026 N.ar    
   7 N7            -1.2305     2.0715     0.0191 N.pl3   
   8 C8            -3.6332    -2.2168     0.0288 C.ar    
   9 C9            -2.6424    -2.5137    -0.9101 C.ar    
  10 C10           -1.4642    -1.7961    -0.9184 C.ar    
  11 C11           -1.2635    -0.7753     0.0105 C.ar    
  12 C12           -2.2536    -0.4802     0.9478 C.ar    
  13 C13           -3.4306    -1.1959     0.9564 C.ar    
  14 C14           -4.9026    -2.9832     0.0350 C.ar    
  15 C15           -5.3817    -3.5338     1.2225 C.ar    
  16 C16           -6.5637    -4.2461     1.2222 C.ar    
  17 C17           -7.2725    -4.4146     0.0463 C.ar    
  18 C18           -6.8017    -3.8708    -1.1353 C.ar    
  19 C19           -5.6243    -3.1509    -1.1458 C.ar    
  20 F20           -2.8377    -3.5031    -1.8091 F       
  21 H21            1.2845    -1.7393    -0.0192 H       
  22 H22            3.3574    -0.3713    -0.0318 H       
  23 H23            3.1905     2.0796    -0.0174 H       
  24 H24           -2.0621     1.5722     0.0204 H       
  25 H25           -1.2471     3.0414     0.0245 H       
  26 H26           -0.6973    -2.0250    -1.6436 H       
  27 H27           -2.0974     0.3102     1.6670 H       
  28 H28           -4.1966    -0.9664     1.6823 H       
  29 H29           -4.8288    -3.4035     2.1411 H       
  30 H30           -6.9358    -4.6732     2.1417 H       
  31 H31           -8.1968    -4.9731     0.0507 H       
  32 H32           -7.3588    -4.0061    -2.0506 H       
  33 H33           -5.2603    -2.7224    -2.0679 H       
@<TRIPOS>BOND
   1    1    2 ar
   2    1    6 ar
   3    1    7 1
   4    2    3 ar
   5    2   11 1
   6    3    4 ar
   7    3   21 1
   8    4    5 ar
   9    4   22 1
  10    5    6 ar
  11    5   23 1
  12    7   24 1
  13    7   25 1
  14    8    9 ar
  15    8   13 ar
  16    8   14 1
  17    9   10 ar
  18    9   20 1
  19   10   11 ar
  20   10   26 1
  21   11   12 ar
  22   12   13 ar
  23   12   27 1
  24   13   28 1
  25   14   15 ar
  26   14   19 ar
  27   15   16 ar
  28   15   29 1
  29   16   17 ar
  30   16   30 1
  31   17   18 ar
  32   17   31 1
  33   18   19 ar
  34   18   32 1
  35   19   33 1

#	End of record

