#	Name: ASD01900771
#	Creating user name:	WinNT
#	Creation time:	15. 06. 2019 19:52

#	Modifying user name:	WinNT
#	Modification time:	15. 06. 2019 19:52

#	Program:	/corina/corina34_cracker 3.40 0067  02.08.2006

@<TRIPOS>MOLECULE
ASD01900771
  49   53    0    0    0
SMALL
NO_CHARGES


@<TRIPOS>ATOM
   1 C1             0.3349     1.4120    -0.0991 C.ar    
   2 C2             0.3513     0.0228    -0.0985 C.ar    
   3 C3            -0.8265    -0.6943    -0.0416 C.ar    
   4 C4            -2.0440    -0.0292     0.0162 C.ar    
   5 C5            -2.0585     1.3720     0.0116 C.ar    
   6 O6            -3.2017    -0.7224     0.0836 O.3     
   7 C7            -4.3896    -0.1399    -0.1559 C.2     
   8 C8            -4.5557     1.2070    -0.1755 C.2     
   9 C9            -3.3755     2.0570     0.0605 C.2     
  10 C10           -5.5585    -0.9987    -0.4079 C.2     
  11 N11           -6.7699    -0.4415    -0.6526 N.2     
  12 C12           -7.8258    -1.1626    -0.8796 C.2     
  13 N13           -7.7707    -2.5293    -0.8836 N.pl3   
  14 C14           -6.5640    -3.1617    -0.6407 C.2     
  15 C15           -5.4208    -2.3767    -0.4008 C.2     
  16 C16           -0.8716     2.0906    -0.0380 C.ar    
  17 C17           -8.7173    -3.4863    -1.0905 C.2     
  18 C18           -8.1407    -4.7083    -0.9849 C.2     
  19 C19           -6.7840    -4.5250    -0.7017 C.2     
  20 O20            1.5030     2.1056    -0.1540 O.3     
  21 C21            2.7093     1.3415    -0.2093 C.3     
  22 C22            3.8922     2.2735    -0.2651 C.2     
  23 N23            5.1423     1.7731    -0.3227 N.am    
  24 C24            6.2306     2.6314    -0.4813 C.ar    
  25 O25            3.7193     3.4739    -0.2582 O.2     
  26 C26            7.5223     2.1213    -0.4289 C.ar    
  27 C27            8.5938     2.9827    -0.5877 C.ar    
  28 C28            8.3340     4.3322    -0.7946 C.ar    
  29 C29            7.0224     4.7697    -0.8352 C.ar    
  30 N30            6.0225     3.9223    -0.6856 N.ar    
  31 F31            9.3511     5.2070    -0.9539 F       
  32 N32           -3.4817     3.3424     0.3001 N.2     
  33 O33           -2.3373     4.0911     0.6673 O.3     
  34 H34            1.2947    -0.5010    -0.1435 H       
  35 H35           -0.8012    -1.7740    -0.0422 H       
  36 H36           -5.5262     1.6438    -0.3594 H       
  37 H37           -8.7691    -0.6719    -1.0691 H       
  38 H38           -4.4630    -2.8369    -0.2081 H       
  39 H39           -0.8889     3.1705    -0.0379 H       
  40 H40           -9.7597    -3.3012    -1.3041 H       
  41 H41           -8.6419    -5.6581    -1.0995 H       
  42 H42           -6.0474    -5.3015    -0.5575 H       
  43 H43            2.7828     0.7139     0.6788 H       
  44 H44            2.7002     0.7122    -1.0992 H       
  45 H45            5.2852     0.8162    -0.2538 H       
  46 H46            7.6878     1.0665    -0.2660 H       
  47 H47            9.6085     2.6148    -0.5513 H       
  48 H48            6.8143     5.8172    -0.9956 H       
  49 H49           -2.5142     5.0289     0.8233 H       
@<TRIPOS>BOND
   1    1    2 ar
   2    1   20 1
   3    1   16 ar
   4    2    3 ar
   5    2   34 1
   6    3    4 ar
   7    3   35 1
   8    4    5 ar
   9    4    6 1
  10    5   16 ar
  11    5    9 1
  12    6    7 1
  13    7    8 2
  14    7   10 1
  15    8    9 1
  16    8   36 1
  17    9   32 2
  18   10   11 1
  19   10   15 2
  20   11   12 2
  21   12   13 1
  22   12   37 1
  23   13   14 1
  24   13   17 1
  25   14   15 1
  26   14   19 2
  27   15   38 1
  28   16   39 1
  29   17   18 2
  30   17   40 1
  31   18   19 1
  32   18   41 1
  33   19   42 1
  34   20   21 1
  35   21   22 1
  36   21   43 1
  37   21   44 1
  38   22   23 am
  39   22   25 2
  40   23   24 1
  41   23   45 1
  42   24   26 ar
  43   24   30 ar
  44   26   27 ar
  45   26   46 1
  46   27   28 ar
  47   27   47 1
  48   28   29 ar
  49   28   31 1
  50   29   30 ar
  51   29   48 1
  52   32   33 1
  53   33   49 1

#	End of record

