#	Name: ASD09740515
#	Creating user name:	WinNT
#	Creation time:	15. 06. 2019 21:23

#	Modifying user name:	WinNT
#	Modification time:	15. 06. 2019 21:23

#	Program:	/corina/corina34_cracker 3.40 0067  02.08.2006

@<TRIPOS>MOLECULE
ASD09740515
  57   60    0    0    0
SMALL
NO_CHARGES


@<TRIPOS>ATOM
   1 N1             0.0530     1.2378    -0.0243 N.2     
   2 N2             0.0804    -0.0229    -0.0125 N.2     
   3 C3             1.1942     1.8695     0.0465 C.2     
   4 S4             2.4764     0.6608     0.1411 S.3     
   5 C5             1.2471    -0.6032     0.0695 C.2     
   6 C6             1.3787     3.3359     0.0472 C.ar    
   7 C7             0.2716     4.1770    -0.0324 C.ar    
   8 C8             2.6640     3.8786     0.1335 C.ar    
   9 C9             2.8419     5.2454     0.1346 C.ar    
  10 C10            1.7467     6.0929     0.0500 C.ar    
  11 C11            0.4516     5.5593    -0.0313 C.ar    
  12 O12            1.9276     7.4374     0.0518 O.3     
  13 C13            3.2584     7.9127     0.2643 C.3     
  14 C14            4.0115     7.9324    -1.0674 C.3     
  15 C15            3.2081     9.3282     0.8428 C.3     
  16 C16           -0.6808     6.4315    -0.1193 C.1     
  17 N17           -1.5791     7.1233    -0.1890 N.1     
  18 C18            1.4944    -2.0603     0.0978 C.ar    
  19 C19            0.4212    -2.9535     0.0335 C.ar    
  20 C20            0.6588    -4.3124     0.0599 C.ar    
  21 C21            1.9585    -4.7858     0.1500 C.ar    
  22 C22            3.0233    -3.9063     0.2142 C.ar    
  23 C23            2.7994    -2.5456     0.1828 C.ar    
  24 C24           -1.0665    -2.6942    -0.0673 C.3     
  25 C25           -1.6780    -4.0310    -0.5380 C.3     
  26 C26           -0.6535    -5.0631    -0.0210 C.3     
  27 N27           -1.0448    -5.5473     1.3052 N.am    
  28 S28           -1.4646    -7.1353     1.5162 S.o2    
  29 O29           -1.8030    -7.2282     2.8932 O.2     
  30 O30           -2.4334    -7.3789     0.5057 O.2     
  31 C31            0.0599    -8.0561     1.1719 C.3     
  32 C32           -0.2305    -9.5577     1.2151 C.3     
  33 O33            0.9704   -10.2831     0.9439 O.3     
  34 H34           -0.7226     3.7599    -0.0950 H       
  35 H35            3.5208     3.2245     0.2000 H       
  36 H36            3.8376     5.6582     0.2018 H       
  37 H37            3.7727     7.2527     0.9628 H       
  38 H38            4.0473     6.9240    -1.4796 H       
  39 H39            3.4972     8.5924    -1.7659 H       
  40 H40            5.0266     8.2950    -0.9053 H       
  41 H41            2.6715     9.3141     1.7915 H       
  42 H42            4.2232     9.6907     1.0049 H       
  43 H43            2.6938     9.9881     0.1443 H       
  44 H44            2.1407    -5.8501     0.1707 H       
  45 H45            4.0322    -4.2853     0.2843 H       
  46 H46            3.6309    -1.8583     0.2329 H       
  47 H47           -1.4689    -2.4164     0.9068 H       
  48 H48           -1.2651    -1.9095    -0.7973 H       
  49 H49           -2.6547    -4.1924    -0.0819 H       
  50 H50           -1.7466    -4.0642    -1.6254 H       
  51 H51           -0.5704    -5.8960    -0.7192 H       
  52 H52           -1.0579    -4.9378     2.0596 H       
  53 H53            0.4319    -7.7863     0.1835 H       
  54 H54            0.8108    -7.8095     1.9225 H       
  55 H55           -0.6025    -9.8275     2.2035 H       
  56 H56           -0.9814    -9.8043     0.4645 H       
  57 H57            0.8607   -11.2438     0.9550 H       
@<TRIPOS>BOND
   1    1    2 1
   2    1    3 2
   3    2    5 2
   4    3    4 1
   5    3    6 1
   6    4    5 1
   7    5   18 1
   8    6    7 ar
   9    6    8 ar
  10    7   11 ar
  11    7   34 1
  12    8    9 ar
  13    8   35 1
  14    9   10 ar
  15    9   36 1
  16   10   11 ar
  17   10   12 1
  18   11   16 1
  19   12   13 1
  20   13   14 1
  21   13   15 1
  22   13   37 1
  23   14   38 1
  24   14   39 1
  25   14   40 1
  26   15   41 1
  27   15   42 1
  28   15   43 1
  29   16   17 3
  30   18   19 ar
  31   18   23 ar
  32   19   20 ar
  33   19   24 1
  34   20   21 ar
  35   20   26 1
  36   21   22 ar
  37   21   44 1
  38   22   23 ar
  39   22   45 1
  40   23   46 1
  41   24   25 1
  42   24   47 1
  43   24   48 1
  44   25   26 1
  45   25   49 1
  46   25   50 1
  47   26   27 1
  48   26   51 1
  49   27   28 am
  50   27   52 1
  51   28   29 2
  52   28   30 2
  53   28   31 1
  54   31   32 1
  55   31   53 1
  56   31   54 1
  57   32   33 1
  58   32   55 1
  59   32   56 1
  60   33   57 1

#	End of record

