#	Name: ASD00061021
#	Creating user name:	WinNT
#	Creation time:	15. 06. 2019 18:29

#	Modifying user name:	WinNT
#	Modification time:	15. 06. 2019 18:29

#	Program:	/corina/corina34_cracker 3.40 0067  02.08.2006

@<TRIPOS>MOLECULE
ASD00061021
  42   43    0    0    0
SMALL
NO_CHARGES


@<TRIPOS>ATOM
   1 C1            -0.4192     3.8801    -0.3628 C.ar    
   2 C2            -0.9239     2.5951    -0.4606 C.ar    
   3 C3            -0.0688     1.5069    -0.4722 C.ar    
   4 C4             1.2944     1.6958    -0.3857 C.ar    
   5 C5             1.8122     2.9911    -0.2866 C.ar    
   6 C6             0.9415     4.0855    -0.2761 C.ar    
   7 C7             3.2658     3.2015    -0.1939 C.2     
   8 C8             3.8196     4.5990    -0.0873 C.3     
   9 O9             4.0178     2.2504    -0.2034 O.2     
  10 C10            5.3307     4.5325     0.1434 C.3     
  11 C11            5.9045     5.9257     0.1176 C.ar    
  12 C12            5.6111     3.8905     1.5036 C.3     
  13 C13            6.8666     6.2597    -0.8171 C.ar    
  14 C14            7.3931     7.5377    -0.8408 C.ar    
  15 C15            6.9570     8.4818     0.0700 C.ar    
  16 C16            5.9942     8.1480     1.0041 C.ar    
  17 C17            5.4647     6.8713     1.0250 C.ar    
  18 C18            7.0926     3.9216     1.7778 C.2     
  19 O19            7.5107     4.4533     2.7790 O.2     
  20 O20            7.9478     3.3585     0.9098 O.3     
  21 C21           -2.4125     2.3796    -0.5545 C.3     
  22 F22           -2.8005     2.3845    -1.8986 F       
  23 F23           -2.7427     1.1483     0.0217 F       
  24 F24           -3.0761     3.4060     0.1262 F       
  25 C25            4.8849     4.6560     2.5797 C.2     
  26 O26            5.4725     5.4865     3.2315 O.2     
  27 O27            3.5854     4.4152     2.8139 O.3     
  28 H28           -1.0926     4.7244    -0.3589 H       
  29 H29           -0.4702     0.5072    -0.5487 H       
  30 H30            1.9604     0.8456    -0.3941 H       
  31 H31            1.3339     5.0888    -0.2002 H       
  32 H32            3.6166     5.1417    -1.0105 H       
  33 H33            3.3467     5.1144     0.7487 H       
  34 H34            5.7923     3.9348    -0.6425 H       
  35 H35            5.2646     2.8571     1.4960 H       
  36 H36            7.2073     5.5221    -1.5286 H       
  37 H37            8.1453     7.7984    -1.5706 H       
  38 H38            7.3688     9.4800     0.0519 H       
  39 H39            5.6538     8.8856     1.7158 H       
  40 H40            4.7125     6.6106     1.7547 H       
  41 H41            8.8916     3.4682     1.0896 H       
  42 H42            3.1626     4.9310     3.5141 H       
@<TRIPOS>BOND
   1    1    2 ar
   2    1    6 ar
   3    1   28 1
   4    2    3 ar
   5    2   21 1
   6    3    4 ar
   7    3   29 1
   8    4    5 ar
   9    4   30 1
  10    5    6 ar
  11    5    7 1
  12    6   31 1
  13    7    8 1
  14    7    9 2
  15    8   10 1
  16    8   32 1
  17    8   33 1
  18   10   11 1
  19   10   12 1
  20   10   34 1
  21   11   13 ar
  22   11   17 ar
  23   12   18 1
  24   12   25 1
  25   12   35 1
  26   13   14 ar
  27   13   36 1
  28   14   15 ar
  29   14   37 1
  30   15   16 ar
  31   15   38 1
  32   16   17 ar
  33   16   39 1
  34   17   40 1
  35   18   19 2
  36   18   20 1
  37   20   41 1
  38   21   22 1
  39   21   23 1
  40   21   24 1
  41   25   26 2
  42   25   27 1
  43   27   42 1

#	End of record

