#	Name: ASD01810229
#	Creating user name:	WinNT
#	Creation time:	15. 06. 2019 19:24

#	Modifying user name:	WinNT
#	Modification time:	15. 06. 2019 19:24

#	Program:	/corina/corina34_cracker 3.40 0067  02.08.2006

@<TRIPOS>MOLECULE
ASD01810229
  49   52    0    0    0
SMALL
NO_CHARGES


@<TRIPOS>ATOM
   1 C1            -0.0169     1.3838    -0.0455 C.ar    
   2 C2             0.0020    -0.0038    -0.0526 C.ar    
   3 C3             1.1973    -0.6918    -0.0490 C.ar    
   4 C4             2.4035     0.0088    -0.0387 C.ar    
   5 C5             2.3796     1.4130    -0.0321 C.ar    
   6 C6             1.1623     2.0949    -0.0352 C.ar    
   7 N7             3.6055    -0.6664    -0.0346 N.pl3   
   8 C8             4.7891    -0.0407    -0.0244 C.2     
   9 C9             4.8932     1.3358    -0.0167 C.2     
  10 C10            3.6618     2.1419    -0.0212 C.2     
  11 O11            3.6999     3.3598    -0.0151 O.2     
  12 C12            6.2115     1.9855    -0.0041 C.2     
  13 O13            6.3000     3.3306     0.0034 O.3     
  14 O14            7.2221     1.3098    -0.0004 O.2     
  15 C15            3.5869    -2.1313    -0.0413 C.3     
  16 C16            3.4437    -2.6254    -1.4578 C.ar    
  17 N17            2.2417    -2.7297    -1.9905 N.ar    
  18 C18            2.0626    -3.1558    -3.2242 C.ar    
  19 C19            3.1514    -3.5147    -4.0155 C.ar    
  20 C20            4.4384    -3.4153    -3.4797 C.ar    
  21 C21            4.5752    -2.9570    -2.1808 C.ar    
  22 C22            2.9480    -3.9954    -5.4046 C.ar    
  23 F23            1.2000    -2.0428    -0.0551 F       
  24 C24            1.6613    -4.0915    -5.9298 C.ar    
  25 C25            1.4779    -4.5388    -7.2228 C.ar    
  26 C26            2.5687    -4.8911    -7.9965 C.ar    
  27 C27            3.8487    -4.7980    -7.4799 C.ar    
  28 C28            4.0439    -4.3467    -6.1905 C.ar    
  29 S29           -0.1488    -4.6616    -7.8885 S.o2    
  30 C30           -0.4509    -3.0418    -8.6472 C.3     
  31 O31           -0.0441    -5.6678    -8.8864 O.2     
  32 O32           -0.9805    -4.8420    -6.7505 O.2     
  33 H33           -0.9608     1.9085    -0.0525 H       
  34 H34           -0.9293    -0.5508    -0.0605 H       
  35 H35            1.1450     3.1747    -0.0305 H       
  36 H36            5.6924    -0.6326    -0.0217 H       
  37 H37            7.1886     3.7120     0.0115 H       
  38 H38            4.5175    -2.5084     0.3827 H       
  39 H39            2.7459    -2.4866     0.5542 H       
  40 H40            1.0625    -3.2277    -3.6257 H       
  41 H41            5.3045    -3.6854    -4.0656 H       
  42 H42            5.5542    -2.8672    -1.7339 H       
  43 H43            0.8087    -3.8169    -5.3264 H       
  44 H44            2.4208    -5.2406    -9.0077 H       
  45 H45            4.6970    -5.0748    -8.0883 H       
  46 H46            5.0436    -4.2744    -5.7882 H       
  47 H47            0.2933    -2.8592    -9.4224 H       
  48 H48           -1.4471    -3.0277    -9.0893 H       
  49 H49           -0.3804    -2.2650    -7.8857 H       
@<TRIPOS>BOND
   1    1    2 ar
   2    1    6 ar
   3    1   33 1
   4    2    3 ar
   5    2   34 1
   6    3    4 ar
   7    3   23 1
   8    4    5 ar
   9    4    7 1
  10    5    6 ar
  11    5   10 1
  12    6   35 1
  13    7    8 1
  14    7   15 1
  15    8    9 2
  16    8   36 1
  17    9   10 1
  18    9   12 1
  19   10   11 2
  20   12   13 1
  21   12   14 2
  22   13   37 1
  23   15   16 1
  24   15   38 1
  25   15   39 1
  26   16   17 ar
  27   16   21 ar
  28   17   18 ar
  29   18   19 ar
  30   18   40 1
  31   19   20 ar
  32   19   22 1
  33   20   21 ar
  34   20   41 1
  35   21   42 1
  36   22   24 ar
  37   22   28 ar
  38   24   25 ar
  39   24   43 1
  40   25   26 ar
  41   25   29 1
  42   26   27 ar
  43   26   44 1
  44   27   28 ar
  45   27   45 1
  46   28   46 1
  47   29   30 1
  48   29   31 2
  49   29   32 2
  50   30   47 1
  51   30   48 1
  52   30   49 1

#	End of record

