#	Name: ASD01913150
#	Creating user name:	WinNT
#	Creation time:	15. 06. 2019 20:01

#	Modifying user name:	WinNT
#	Modification time:	15. 06. 2019 20:01

#	Program:	/corina/corina34_cracker 3.40 0067  02.08.2006

@<TRIPOS>MOLECULE
ASD01913150
  46   48    0    0    0
SMALL
NO_CHARGES


@<TRIPOS>ATOM
   1 C1             0.0392     1.1794     0.0592 C.ar    
   2 C2             0.0295    -0.2049     0.0811 C.ar    
   3 C3            -1.1713    -0.8878     0.0908 C.ar    
   4 C4            -2.3677    -0.1860     0.0785 C.ar    
   5 C5            -2.3565     1.2008     0.0566 C.ar    
   6 C6            -1.1542     1.8813     0.0522 C.ar    
   7 O7            -3.5501    -0.8568     0.0876 O.3     
   8 C8            -4.7427    -0.0696     0.0740 C.3     
   9 C9            -5.9630    -0.9924     0.0869 C.3     
  10 C10           -7.2207    -0.1623     0.0726 C.2     
  11 N11           -8.4261    -0.7650     0.0806 N.am    
  12 C12           -9.6659     0.0262     0.0670 C.3     
  13 C13          -10.5650    -0.4972    -1.0582 C.3     
  14 N14          -10.7538    -1.9450    -0.8964 N.3     
  15 C15           -9.4802    -2.6660    -1.0233 C.3     
  16 C16           -8.5367    -2.2316     0.0971 C.3     
  17 O17           -7.1481     1.0482     0.0540 O.2     
  18 C18          -11.6930    -2.4293    -1.8009 C.ar    
  19 C19          -11.3039    -3.2947    -2.8142 C.ar    
  20 C20          -12.2374    -3.7744    -3.7112 C.ar    
  21 C21          -13.5674    -3.3976    -3.6084 C.ar    
  22 C22          -13.9725    -2.5387    -2.6081 C.ar    
  23 C23          -13.0401    -2.0498    -1.6899 C.ar    
  24 F24            1.2142     1.8461     0.0502 F       
  25 Cl25         -14.7288    -4.0093    -4.7446 Cl      
  26 C26          -13.4538    -1.1581    -0.6486 C.1     
  27 N27          -13.7820    -0.4507     0.1775 N.1     
  28 H28            0.9612    -0.7511     0.0902 H       
  29 H29           -1.1786    -1.9677     0.1075 H       
  30 H30           -3.2873     1.7485     0.0466 H       
  31 H31           -1.1452     2.9611     0.0355 H       
  32 H32           -4.7638     0.5731     0.9541 H       
  33 H33           -4.7618     0.5455    -0.8256 H       
  34 H34           -5.9419    -1.6351    -0.7932 H       
  35 H35           -5.9439    -1.6075     0.9866 H       
  36 H36          -10.1778    -0.0788     1.0235 H       
  37 H37           -9.4289     1.0750    -0.1116 H       
  38 H38          -11.5323     0.0031    -1.0133 H       
  39 H39          -10.0959    -0.2969    -2.0215 H       
  40 H40           -9.6609    -3.7386    -0.9531 H       
  41 H41           -9.0263    -2.4355    -1.9871 H       
  42 H42           -7.5538    -2.6762    -0.0589 H       
  43 H43           -8.9381    -2.5518     1.0586 H       
  44 H44          -10.2695    -3.5927    -2.9013 H       
  45 H45          -11.9294    -4.4472    -4.4979 H       
  46 H46          -15.0098    -2.2477    -2.5324 H       
@<TRIPOS>BOND
   1    1    2 ar
   2    1   24 1
   3    1    6 ar
   4    2    3 ar
   5    2   28 1
   6    3    4 ar
   7    3   29 1
   8    4    5 ar
   9    4    7 1
  10    5    6 ar
  11    5   30 1
  12    6   31 1
  13    7    8 1
  14    8    9 1
  15    8   32 1
  16    8   33 1
  17    9   10 1
  18    9   34 1
  19    9   35 1
  20   10   11 am
  21   10   17 2
  22   11   12 1
  23   11   16 1
  24   12   13 1
  25   12   36 1
  26   12   37 1
  27   13   14 1
  28   13   38 1
  29   13   39 1
  30   14   15 1
  31   14   18 1
  32   15   16 1
  33   15   40 1
  34   15   41 1
  35   16   42 1
  36   16   43 1
  37   18   19 ar
  38   18   23 ar
  39   19   20 ar
  40   19   44 1
  41   20   21 ar
  42   20   45 1
  43   21   22 ar
  44   21   25 1
  45   22   23 ar
  46   22   46 1
  47   23   26 1
  48   26   27 3

#	End of record

