#	Name: ASD01915803
#	Creating user name:	WinNT
#	Creation time:	15. 06. 2019 20:06

#	Modifying user name:	WinNT
#	Modification time:	15. 06. 2019 20:06

#	Program:	/corina/corina34_cracker 3.40 0067  02.08.2006

@<TRIPOS>MOLECULE
ASD01915803
  48   51    0    0    0
SMALL
NO_CHARGES


@<TRIPOS>ATOM
   1 C1            -0.0166     1.3727     0.0096 C.2     
   2 N2             0.0021    -0.0041     0.0020 N.pl3   
   3 C3            -1.2434    -0.7807    -0.0179 C.3     
   4 C4            -2.3411     0.0067     0.6955 C.3     
   5 N5            -2.4044     1.3988     0.2638 N.am    
   6 C6            -1.2813     2.1228     0.0392 C.2     
   7 C7             1.2845     1.7904    -0.0006 C.2     
   8 C8             2.0436     0.6124    -0.0024 C.2     
   9 N9             1.2133    -0.4043     0.0045 N.2     
  10 C10            3.5482     0.5278    -0.0107 C.3     
  11 O11            4.0995     1.8462    -0.0166 O.3     
  12 C12            5.4546     1.9483    -0.0244 C.ar    
  13 O13           -1.3172     3.3271    -0.1285 O.2     
  14 C14            6.0572     3.1979    -0.0305 C.ar    
  15 C15            6.2377     0.8031    -0.0207 C.ar    
  16 C16            7.6150     0.9096    -0.0287 C.ar    
  17 C17            8.2132     2.1561    -0.0405 C.ar    
  18 C18            7.4349     3.2990    -0.0385 C.ar    
  19 C19           -3.6541     2.0003     0.0771 C.ar    
  20 C20           -4.2775     1.9381    -1.1621 C.ar    
  21 C21           -4.2753     2.6554     1.1327 C.ar    
  22 C22           -5.5086     3.2478     0.9464 C.ar    
  23 C23           -6.1262     3.1892    -0.2918 C.ar    
  24 C24           -5.5112     2.5321    -1.3440 C.ar    
  25 F25           -7.3329     3.7695    -0.4719 F       
  26 C26           -3.6083     1.2236    -2.3078 C.3     
  27 O27           -4.4411     1.2972    -3.4667 O.3     
  28 C28           -3.8961     0.6469    -4.6164 C.3     
  29 H29           -1.5404    -0.9655    -1.0502 H       
  30 H30           -1.0875    -1.7314     0.4922 H       
  31 H31           -3.3017    -0.4681     0.4956 H       
  32 H32           -2.1535    -0.0209     1.7689 H       
  33 H33            1.6485     2.8071    -0.0066 H       
  34 H34            3.8872    -0.0038     0.8786 H       
  35 H35            3.8771    -0.0076    -0.9014 H       
  36 H36            5.4498     4.0908    -0.0293 H       
  37 H37            5.7710    -0.1708    -0.0111 H       
  38 H38            8.2251     0.0184    -0.0254 H       
  39 H39            9.2901     2.2373    -0.0468 H       
  40 H40            7.9045     4.2715    -0.0481 H       
  41 H41           -3.7941     2.7010     2.0985 H       
  42 H42           -5.9921     3.7570     1.7670 H       
  43 H43           -5.9946     2.4875    -2.3088 H       
  44 H44           -2.6487     1.6952    -2.5194 H       
  45 H45           -3.4487     0.1789    -2.0409 H       
  46 H46           -4.5876     0.7477    -5.4529 H       
  47 H47           -2.9424     1.1065    -4.8759 H       
  48 H48           -3.7424    -0.4098    -4.3974 H       
@<TRIPOS>BOND
   1    1    2 1
   2    1    7 2
   3    1    6 1
   4    2    3 1
   5    2    9 1
   6    3    4 1
   7    3   29 1
   8    3   30 1
   9    4    5 1
  10    4   31 1
  11    4   32 1
  12    5    6 am
  13    5   19 1
  14    6   13 2
  15    7    8 1
  16    7   33 1
  17    8    9 2
  18    8   10 1
  19   10   11 1
  20   10   34 1
  21   10   35 1
  22   11   12 1
  23   12   14 ar
  24   12   15 ar
  25   14   18 ar
  26   14   36 1
  27   15   16 ar
  28   15   37 1
  29   16   17 ar
  30   16   38 1
  31   17   18 ar
  32   17   39 1
  33   18   40 1
  34   19   21 ar
  35   19   20 ar
  36   20   26 1
  37   20   24 ar
  38   21   22 ar
  39   21   41 1
  40   22   23 ar
  41   22   42 1
  42   23   24 ar
  43   23   25 1
  44   24   43 1
  45   26   27 1
  46   26   44 1
  47   26   45 1
  48   27   28 1
  49   28   46 1
  50   28   47 1
  51   28   48 1

#	End of record

