#	Name: ASD01410623
#	Creating user name:	WinNT
#	Creation time:	15. 06. 2019 19:18

#	Modifying user name:	WinNT
#	Modification time:	15. 06. 2019 19:18

#	Program:	/corina/corina34_cracker 3.40 0067  02.08.2006

@<TRIPOS>MOLECULE
ASD01410623
  81   85    0    0    0
SMALL
NO_CHARGES


@<TRIPOS>ATOM
   1 C1            -0.3704     0.8402    -2.6217 C.ar    
   2 C2             0.5097     1.2604    -3.6092 C.ar    
   3 C3             1.8652     1.0614    -3.4355 C.ar    
   4 N4             2.3290     0.4792    -2.3463 N.ar    
   5 C5             1.5220     0.0651    -1.3832 C.ar    
   6 C6             0.1474     0.2327    -1.4909 C.ar    
   7 O7             2.0421    -0.5288    -0.2798 O.3     
   8 C8             3.3828    -0.7524    -0.2472 C.ar    
   9 C9             4.2579     0.3109    -0.0598 C.ar    
  10 C10            5.6207     0.0950    -0.0251 C.ar    
  11 C11            6.1271    -1.1881    -0.1780 C.ar    
  12 C12            5.2489    -2.2660    -0.3676 C.ar    
  13 C13            3.8709    -2.0379    -0.3951 C.ar    
  14 N14            7.5038    -1.4053    -0.1438 N.am    
  15 C15            8.2072    -1.4530    -1.2924 C.2     
  16 C16            8.1858    -1.5817     1.1407 C.3     
  17 O17            9.3906    -1.7172    -1.2682 O.2     
  18 C18            7.5233    -1.1781    -2.6069 C.3     
  19 C19            8.2714    -1.8970    -3.7313 C.3     
  20 C20            7.5770    -1.6179    -5.0657 C.3     
  21 C21            7.5765    -0.1118    -5.3351 C.3     
  22 C22            6.8283     0.6072    -4.2107 C.3     
  23 C23            7.5227     0.3280    -2.8763 C.3     
  24 C24            6.8821     0.1673    -6.6696 C.3     
  25 C25            7.5029    -2.6994     1.9314 C.3     
  26 C26            8.2152    -2.8837     3.2729 C.3     
  27 C27            8.1465    -1.5796     4.0702 C.3     
  28 C28            8.8294    -0.4619     3.2794 C.3     
  29 C29            8.1171    -0.2776     1.9379 C.3     
  30 O30            8.7549     0.7663     1.1994 O.3     
  31 C31            8.2634     2.0742     1.4990 C.3     
  32 C32            9.0782     3.0999     0.7539 C.ar    
  33 C33            8.6415     3.5738    -0.4691 C.ar    
  34 C34           10.2593     3.5711     1.2960 C.ar    
  35 C35           11.0066     4.5120     0.6125 C.ar    
  36 C36           10.5730     4.9813    -0.6133 C.ar    
  37 C37            9.3888     4.5147    -1.1526 C.ar    
  38 C38           -0.7680    -0.2405    -0.3912 C.3     
  39 F39           -2.0945     0.0411    -0.7353 F       
  40 F40           -0.6140    -1.6201    -0.2177 F       
  41 F41           -0.4453     0.4183     0.8000 F       
  42 C42            5.7772    -3.6322    -0.5315 C.2     
  43 O43            6.9773    -3.8215    -0.5490 O.2     
  44 O44            4.9292    -4.6713    -0.6619 O.3     
  45 H45           -1.4347     0.9879    -2.7311 H       
  46 H46            0.1384     1.7375    -4.5041 H       
  47 H47            2.5542     1.3862    -4.2011 H       
  48 H48            3.8695     1.3116     0.0591 H       
  49 H49            6.2944     0.9264     0.1210 H       
  50 H50            3.1887    -2.8624    -0.5406 H       
  51 H51            9.2287    -1.8458     0.9651 H       
  52 H52            6.4960    -1.5400    -2.5646 H       
  53 H53            9.2987    -1.5351    -3.7735 H       
  54 H54            8.2718    -2.9700    -3.5393 H       
  55 H55            8.1100    -2.1301    -5.8668 H       
  56 H56            6.5497    -1.9798    -5.0234 H       
  57 H57            8.6038     0.2501    -5.3774 H       
  58 H58            6.8280     1.6801    -4.4027 H       
  59 H59            5.8010     0.2453    -4.1684 H       
  60 H60            6.9897     0.8402    -2.0752 H       
  61 H61            8.5500     0.6899    -2.9185 H       
  62 H62            5.8548    -0.1946    -6.6273 H       
  63 H63            6.8817     1.2403    -6.8615 H       
  64 H64            7.4151    -0.3449    -7.4707 H       
  65 H65            6.4601    -2.4354     2.1070 H       
  66 H66            7.5518    -3.6285     1.3635 H       
  67 H67            7.7287    -3.6800     3.8363 H       
  68 H68            9.2581    -3.1477     3.0973 H       
  69 H69            7.1037    -1.3156     4.2458 H       
  70 H70            8.6540    -1.7108     5.0259 H       
  71 H71            8.7805     0.4672     3.8474 H       
  72 H72            9.8723    -0.7259     3.1038 H       
  73 H73            7.0743    -0.0136     2.1135 H       
  74 H74            7.2194     2.1486     1.1947 H       
  75 H75            8.3433     2.2556     2.5709 H       
  76 H76            7.7166     3.2087    -0.8907 H       
  77 H77           10.5980     3.2044     2.2537 H       
  78 H78           11.9290     4.8806     1.0364 H       
  79 H79           11.1567     5.7167    -1.1471 H       
  80 H80            9.0501     4.8814    -2.1103 H       
  81 H81            5.3203    -5.5372    -0.8416 H       
@<TRIPOS>BOND
   1    1    2 ar
   2    1    6 ar
   3    1   45 1
   4    2    3 ar
   5    2   46 1
   6    3    4 ar
   7    3   47 1
   8    4    5 ar
   9    5    6 ar
  10    5    7 1
  11    6   38 1
  12    7    8 1
  13    8    9 ar
  14    8   13 ar
  15    9   10 ar
  16    9   48 1
  17   10   11 ar
  18   10   49 1
  19   11   12 ar
  20   11   14 1
  21   12   13 ar
  22   12   42 1
  23   13   50 1
  24   14   15 am
  25   14   16 1
  26   15   17 2
  27   15   18 1
  28   16   25 1
  29   16   29 1
  30   16   51 1
  31   18   19 1
  32   18   23 1
  33   18   52 1
  34   19   20 1
  35   19   53 1
  36   19   54 1
  37   20   21 1
  38   20   55 1
  39   20   56 1
  40   21   22 1
  41   21   24 1
  42   21   57 1
  43   22   23 1
  44   22   58 1
  45   22   59 1
  46   23   60 1
  47   23   61 1
  48   24   62 1
  49   24   63 1
  50   24   64 1
  51   25   26 1
  52   25   65 1
  53   25   66 1
  54   26   27 1
  55   26   67 1
  56   26   68 1
  57   27   28 1
  58   27   69 1
  59   27   70 1
  60   28   29 1
  61   28   71 1
  62   28   72 1
  63   29   30 1
  64   29   73 1
  65   30   31 1
  66   31   32 1
  67   31   74 1
  68   31   75 1
  69   32   33 ar
  70   32   34 ar
  71   33   37 ar
  72   33   76 1
  73   34   35 ar
  74   34   77 1
  75   35   36 ar
  76   35   78 1
  77   36   37 ar
  78   36   79 1
  79   37   80 1
  80   38   39 1
  81   38   40 1
  82   38   41 1
  83   42   43 2
  84   42   44 1
  85   44   81 1

#	End of record

