#	Name: ASD02508264
#	Creating user name:	WinNT
#	Creation time:	15. 06. 2019 20:24

#	Modifying user name:	WinNT
#	Modification time:	15. 06. 2019 20:24

#	Program:	/corina/corina34_cracker 3.40 0067  02.08.2006

@<TRIPOS>MOLECULE
ASD02508264
  33   35    0    0    0
SMALL
NO_CHARGES


@<TRIPOS>ATOM
   1 C1            -0.4424    -0.2528    -1.6800 C.ar    
   2 C2            -0.7558    -1.6012    -1.5113 C.ar    
   3 C3            -1.9836    -1.9681    -0.9835 C.ar    
   4 C4            -2.8964    -0.9954    -0.6249 C.ar    
   5 C5            -2.5869     0.3453    -0.7917 C.ar    
   6 C6            -1.3614     0.7180    -1.3136 C.ar    
   7 S7            -4.4581    -1.4600     0.0458 S.o2    
   8 N8            -4.5895    -0.7359     1.5293 N.am    
   9 C9            -4.0067    -1.3330     2.6538 C.ar    
  10 O10            0.8050    -0.1922    -2.2073 O.3     
  11 C11            1.2758    -1.4383    -2.3719 C.2     
  12 N12            0.3502    -2.3262    -1.9577 N.am    
  13 O13           -5.4449    -0.8602    -0.7823 O.2     
  14 O14           -4.3912    -2.8589     0.2865 O.2     
  15 O15            2.3680    -1.7223    -2.8248 O.2     
  16 C16           -4.5171    -1.0780     3.9213 C.ar    
  17 C17           -2.9199    -2.1865     2.5050 C.ar    
  18 C18           -2.3468    -2.7744     3.6183 C.ar    
  19 C19           -2.8539    -2.5138     4.8781 C.ar    
  20 C20           -3.9385    -1.6697     5.0298 C.ar    
  21 F21           -3.4839     1.2919    -0.4390 F       
  22 C22            0.4808    -3.7853    -1.9736 C.3     
  23 F23           -5.5765    -0.2531     4.0705 F       
  24 F24           -2.4241    -2.4421     1.2745 F       
  25 H25           -2.2264    -3.0124    -0.8532 H       
  26 H26           -1.1238     1.7637    -1.4422 H       
  27 H27           -5.0702     0.1018     1.6193 H       
  28 H28           -1.5026    -3.4380     3.5035 H       
  29 H29           -2.4045    -2.9745     5.7454 H       
  30 H30           -4.3317    -1.4685     6.0153 H       
  31 H31            1.4556    -4.0584    -2.3778 H       
  32 H32            0.3881    -4.1695    -0.9578 H       
  33 H33           -0.3040    -4.2136    -2.5971 H       
@<TRIPOS>BOND
   1    1    2 ar
   2    1   10 1
   3    1    6 ar
   4    2    3 ar
   5    2   12 1
   6    3    4 ar
   7    3   25 1
   8    4    5 ar
   9    4    7 1
  10    5    6 ar
  11    5   21 1
  12    6   26 1
  13    7    8 am
  14    7   13 2
  15    7   14 2
  16    8    9 1
  17    8   27 1
  18    9   16 ar
  19    9   17 ar
  20   10   11 1
  21   11   12 am
  22   11   15 2
  23   12   22 1
  24   16   23 1
  25   16   20 ar
  26   17   18 ar
  27   17   24 1
  28   18   19 ar
  29   18   28 1
  30   19   20 ar
  31   19   29 1
  32   20   30 1
  33   22   31 1
  34   22   32 1
  35   22   33 1

#	End of record

