#	Name: ASD01770014
#	Creating user name:	WinNT
#	Creation time:	15. 06. 2019 19:23

#	Modifying user name:	WinNT
#	Modification time:	15. 06. 2019 19:23

#	Program:	/corina/corina34_cracker 3.40 0067  02.08.2006

@<TRIPOS>MOLECULE
ASD01770014
  22   21    0    0    0
SMALL
NO_CHARGES


@<TRIPOS>ATOM
   1 C1            -0.0173     1.4248     0.0099 C.3     
   2 O2             0.0021    -0.0041     0.0020 O.3     
   3 C3             1.4181     1.9544    -0.0010 C.3     
   4 C4             1.3973     3.4842     0.0074 C.3     
   5 C5             2.8327     4.0138    -0.0034 C.3     
   6 C6             2.8120     5.5436     0.0050 C.3     
   7 C7             4.2474     6.0732    -0.0059 C.3     
   8 O8             4.2280     7.5020     0.0020 O.3     
   9 H9            -0.5445     1.7859    -0.8732 H       
  10 H10           -0.5275     1.7763     0.9067 H       
  11 H11           -0.8759    -0.4094     0.0082 H       
  12 H12            1.9453     1.5933     0.8821 H       
  13 H13            1.9283     1.6028    -0.8978 H       
  14 H14            0.8701     3.8453    -0.8756 H       
  15 H15            0.8871     3.8357     0.9042 H       
  16 H16            3.3599     3.6527     0.8796 H       
  17 H17            3.3429     3.6623    -0.9002 H       
  18 H18            2.2848     5.9047    -0.8781 H       
  19 H19            2.3018     5.8951     0.9018 H       
  20 H20            4.7745     5.7121     0.8772 H       
  21 H21            4.7575     5.7217    -0.9027 H       
  22 H22            5.1059     7.9073    -0.0042 H       
@<TRIPOS>BOND
   1    1    2 1
   2    1    3 1
   3    1    9 1
   4    1   10 1
   5    2   11 1
   6    3    4 1
   7    3   12 1
   8    3   13 1
   9    4    5 1
  10    4   14 1
  11    4   15 1
  12    5    6 1
  13    5   16 1
  14    5   17 1
  15    6    7 1
  16    6   18 1
  17    6   19 1
  18    7    8 1
  19    7   20 1
  20    7   21 1
  21    8   22 1

#	End of record

