#	Name: ASD01912812
#	Creating user name:	WinNT
#	Creation time:	15. 06. 2019 20:00

#	Modifying user name:	WinNT
#	Modification time:	15. 06. 2019 20:00

#	Program:	/corina/corina34_cracker 3.40 0067  02.08.2006

@<TRIPOS>MOLECULE
ASD01912812
  41   44    0    0    0
SMALL
NO_CHARGES


@<TRIPOS>ATOM
   1 C1            -0.0165     1.3669     0.0096 C.2     
   2 N2             0.0021    -0.0041     0.0020 N.pl3   
   3 C3            -1.2022    -0.6919     0.0094 C.2     
   4 C4            -2.3630    -0.0495     0.0235 C.2     
   5 N5            -2.4358     1.3307     0.0317 N.am    
   6 C6            -1.3020     2.0667     0.0309 C.2     
   7 C7             1.3015     1.7836    -0.0008 C.2     
   8 C8             2.0550     0.6111    -0.0143 C.2     
   9 N9             1.2243    -0.4045    -0.0118 N.2     
  10 O10           -1.3489     3.2837     0.0383 O.2     
  11 C11           -3.6826     1.9657     0.0461 C.ar    
  12 C12            3.5595     0.5250    -0.0298 C.3     
  13 O13            4.1120     1.8428    -0.0288 O.3     
  14 C14            5.4650     1.9434    -0.0419 C.ar    
  15 C15            6.0614     3.1976    -0.0416 C.ar    
  16 C16            7.4427     3.2866    -0.0551 C.ar    
  17 C17            8.1815     2.1118    -0.0684 C.ar    
  18 C18            7.5216     0.8987    -0.0679 C.ar    
  19 N19            6.2034     0.8460    -0.0494 N.ar    
  20 C20           -4.2897     2.2803     1.2554 C.ar    
  21 C21           -4.3133     2.2881    -1.1485 C.ar    
  22 C22           -5.5437     2.9153    -1.1308 C.ar    
  23 C23           -6.1476     3.2223     0.0745 C.ar    
  24 C24           -5.5198     2.9074     1.2661 C.ar    
  25 C25           -3.6556     1.9543    -2.4627 C.3     
  26 H26           -1.1950    -1.7719     0.0032 H       
  27 H27           -3.2785    -0.6223     0.0285 H       
  28 H28            1.6685     2.7994     0.0008 H       
  29 H29            3.9018    -0.0132     0.8540 H       
  30 H30            3.8838    -0.0043    -0.9258 H       
  31 H31            5.4556     4.0917    -0.0314 H       
  32 H32            7.9343     4.2482    -0.0555 H       
  33 H33            9.2609     2.1459    -0.0795 H       
  34 H34            8.0918    -0.0184    -0.0786 H       
  35 H35           -3.8001     2.0344     2.1861 H       
  36 H36           -6.0345     3.1666    -2.0595 H       
  37 H37           -7.1098     3.7128     0.0857 H       
  38 H38           -5.9943     3.1482     2.2059 H       
  39 H39           -3.9635     0.9581    -2.7804 H       
  40 H40           -3.9552     2.6842    -3.2147 H       
  41 H41           -2.5724     1.9790    -2.3436 H       
@<TRIPOS>BOND
   1    1    2 1
   2    1    7 2
   3    1    6 1
   4    2    3 1
   5    2    9 1
   6    3    4 2
   7    3   26 1
   8    4    5 1
   9    4   27 1
  10    5    6 am
  11    5   11 1
  12    6   10 2
  13    7    8 1
  14    7   28 1
  15    8    9 2
  16    8   12 1
  17   11   21 ar
  18   11   20 ar
  19   12   13 1
  20   12   29 1
  21   12   30 1
  22   13   14 1
  23   14   15 ar
  24   14   19 ar
  25   15   16 ar
  26   15   31 1
  27   16   17 ar
  28   16   32 1
  29   17   18 ar
  30   17   33 1
  31   18   19 ar
  32   18   34 1
  33   20   24 ar
  34   20   35 1
  35   21   22 ar
  36   21   25 1
  37   22   23 ar
  38   22   36 1
  39   23   24 ar
  40   23   37 1
  41   24   38 1
  42   25   39 1
  43   25   40 1
  44   25   41 1

#	End of record

