#	Name: ASD02030787
#	Creating user name:	WinNT
#	Creation time:	15. 06. 2019 20:16

#	Modifying user name:	WinNT
#	Modification time:	15. 06. 2019 20:16

#	Program:	/corina/corina34_cracker 3.40 0067  02.08.2006

@<TRIPOS>MOLECULE
ASD02030787
  78   82    0    0    0
SMALL
NO_CHARGES


@<TRIPOS>ATOM
   1 H1            -0.4314     0.0271    -0.2919 H       
   2 C2            -0.2100     1.0943    -0.2735 C.3     
   3 C3            -0.6535     1.7575    -1.6014 C.3     
   4 C4             0.6415     2.2709    -2.2884 C.3     
   5 C5             1.7282     1.3755    -1.6837 C.3     
   6 H6             1.6913     0.3809    -2.1283 H       
   7 C7             3.1394     1.9316    -1.7168 C.3     
   8 H8             3.1713     2.8869    -1.1929 H       
   9 C9             3.6126     2.0953    -3.1619 C.3     
  10 C10            5.0548     2.6062    -3.1714 C.3     
  11 C11            5.9578     1.6025    -2.4518 C.3     
  12 H12            5.9118     0.6411    -2.9634 H       
  13 C13            7.3994     2.1142    -2.4610 C.3     
  14 C14            8.3019     1.1087    -1.7429 C.3     
  15 C15            8.2337    -0.2410    -2.4601 C.3     
  16 O16            9.6489     1.5859    -1.7525 O.3     
  17 C17            7.8296     0.9427    -0.2971 C.3     
  18 C18            6.3881     0.4304    -0.2874 C.3     
  19 C19            5.4840     1.4338    -1.0065 C.3     
  20 C20            5.5461     2.7832    -0.2880 C.3     
  21 C21            4.0449     0.9167    -1.0018 C.3     
  22 H22            4.0091    -0.0292    -1.5423 H       
  23 C23            3.5843     0.6661     0.4299 C.3     
  24 C24            2.1100     0.2301     0.4757 C.3     
  25 C25            1.2962     1.3202    -0.1933 C.3     
  26 C26            1.5824     2.6647     0.4784 C.3     
  27 C27           -0.9098     1.7596     0.9133 C.3     
  28 H28           -0.6283     2.8117     0.9579 H       
  29 C29           -0.4889     1.0637     2.2092 C.3     
  30 C30           -2.4258     1.6442     0.7416 C.3     
  31 C31           -3.1262     2.4162     1.8615 C.3     
  32 C32           -4.6421     2.3008     1.6898 C.3     
  33 C33           -5.3425     3.0729     2.8098 C.3     
  34 O34           -4.6791     3.0600     4.0754 O.3     
  35 C35           -6.1038     4.3426     2.4236 C.3     
  36 C36           -6.8724     3.0786     2.8141 C.3     
  37 H37           -1.1495     1.0249    -2.2381 H       
  38 H38           -1.3246     2.5917    -1.3971 H       
  39 H39            0.5856     2.1339    -3.3683 H       
  40 H40            0.8212     3.3169    -2.0400 H       
  41 H41            3.5647     1.1327    -3.6712 H       
  42 H42            2.9703     2.8105    -3.6758 H       
  43 H43            5.3915     2.7242    -4.2013 H       
  44 H44            5.1026     3.5683    -2.6614 H       
  45 H45            7.7360     2.2337    -3.4909 H       
  46 H46            7.4471     3.0754    -1.9493 H       
  47 H47            8.5696    -0.1225    -3.4903 H       
  48 H48            8.8767    -0.9572    -1.9485 H       
  49 H49            7.2063    -0.6050    -2.4525 H       
  50 H50           10.2778     0.9971    -1.3133 H       
  51 H51            8.4729     0.2275     0.2154 H       
  52 H52            7.8768     1.9047     0.2133 H       
  53 H53            6.3411    -0.5316    -0.7978 H       
  54 H54            6.0518     0.3117     0.7426 H       
  55 H55            4.9016     3.4976    -0.8003 H       
  56 H56            5.2086     2.6626     0.7414 H       
  57 H57            6.5722     3.1508    -0.2933 H       
  58 H58            4.2016    -0.1163     0.8715 H       
  59 H59            3.7035     1.5821     1.0085 H       
  60 H60            1.9844    -0.7096    -0.0623 H       
  61 H61            1.7905     0.1112     1.5110 H       
  62 H62            1.2487     2.6311     1.5155 H       
  63 H63            2.6534     2.8655     0.4477 H       
  64 H64            1.0493     3.4554    -0.0495 H       
  65 H65            0.5806     1.2036     2.3659 H       
  66 H66           -1.0382     1.4929     3.0471 H       
  67 H67           -0.7093    -0.0014     2.1377 H       
  68 H68           -2.7150     2.0613    -0.2231 H       
  69 H69           -2.7176     0.5950     0.7860 H       
  70 H70           -2.8370     1.9992     2.8262 H       
  71 H71           -2.8343     3.4655     1.8171 H       
  72 H72           -4.9313     2.7179     0.7252 H       
  73 H73           -4.9340     1.2516     1.7343 H       
  74 H74           -3.7141     3.0582     4.0137 H       
  75 H75           -6.0986     5.1685     3.1349 H       
  76 H76           -6.1057     4.6279     1.3716 H       
  77 H77           -7.3801     2.5324     2.0191 H       
  78 H78           -7.3730     3.0730     3.7824 H       
@<TRIPOS>BOND
   1    1    2 1
   2    2   25 1
   3    2    3 1
   4    2   27 1
   5    3    4 1
   6    3   37 1
   7    3   38 1
   8    4    5 1
   9    4   39 1
  10    4   40 1
  11    5   25 1
  12    5    6 1
  13    5    7 1
  14    7   21 1
  15    7    8 1
  16    7    9 1
  17    9   10 1
  18    9   41 1
  19    9   42 1
  20   10   11 1
  21   10   43 1
  22   10   44 1
  23   11   19 1
  24   11   12 1
  25   11   13 1
  26   13   14 1
  27   13   45 1
  28   13   46 1
  29   14   15 1
  30   14   16 1
  31   14   17 1
  32   15   47 1
  33   15   48 1
  34   15   49 1
  35   16   50 1
  36   17   18 1
  37   17   51 1
  38   17   52 1
  39   18   19 1
  40   18   53 1
  41   18   54 1
  42   19   20 1
  43   19   21 1
  44   20   55 1
  45   20   56 1
  46   20   57 1
  47   21   22 1
  48   21   23 1
  49   23   24 1
  50   23   58 1
  51   23   59 1
  52   24   25 1
  53   24   60 1
  54   24   61 1
  55   25   26 1
  56   26   62 1
  57   26   63 1
  58   26   64 1
  59   27   28 1
  60   27   29 1
  61   27   30 1
  62   29   65 1
  63   29   66 1
  64   29   67 1
  65   30   31 1
  66   30   68 1
  67   30   69 1
  68   31   32 1
  69   31   70 1
  70   31   71 1
  71   32   33 1
  72   32   72 1
  73   32   73 1
  74   33   36 1
  75   33   34 1
  76   33   35 1
  77   34   74 1
  78   35   36 1
  79   35   75 1
  80   35   76 1
  81   36   77 1
  82   36   78 1

#	End of record

