#	Name: ASD04910284
#	Creating user name:	WinNT
#	Creation time:	15. 06. 2019 20:55

#	Modifying user name:	WinNT
#	Modification time:	15. 06. 2019 20:55

#	Program:	/corina/corina34_cracker 3.40 0067  02.08.2006

@<TRIPOS>MOLECULE
ASD04910284
  63   65    0    0    0
SMALL
NO_CHARGES


@<TRIPOS>ATOM
   1 C1            -0.2693     1.4347     0.2404 C.2     
   2 C2            -0.2089    -0.0706     0.2043 C.3     
   3 C3             1.2520    -0.5211     0.1426 C.3     
   4 O4             0.7514     2.0809     0.2189 O.2     
   5 O5            -1.4571     2.0577     0.2907 O.3     
   6 C6             2.5032    -2.6100     0.0514 C.2     
   7 C7             2.5624    -4.0869     0.0160 C.ar    
   8 C8             3.7958    -4.7377    -0.0422 C.ar    
   9 C9             3.8440    -6.1160    -0.0745 C.ar    
  10 C10            2.6733    -6.8531    -0.0499 C.ar    
  11 C11            1.4475    -6.2141     0.0078 C.ar    
  12 C12            1.3854    -4.8364     0.0464 C.ar    
  13 O13            3.5300    -1.9599     0.0298 O.2     
  14 N14            1.3106    -1.9845     0.1075 N.am    
  15 C15            2.7337    -8.3584    -0.0864 C.3     
  16 C16            2.5543    -8.9105     1.3292 C.3     
  17 C17            2.7395   -10.4292     1.3115 C.3     
  18 C18            2.5601   -10.9813     2.7271 C.3     
  19 O19            1.6915    -8.8566    -0.9276 O.3     
  20 C20            1.9543    -9.9903    -1.6303 C.ar    
  21 C21            3.2167   -10.5632    -1.5753 C.ar    
  22 C22            3.4842   -11.7146    -2.2889 C.ar    
  23 C23            2.4897   -12.2990    -3.0614 C.ar    
  24 C24            1.2267   -11.7253    -3.1161 C.ar    
  25 C25            0.9585   -10.5771    -2.3977 C.ar    
  26 N26            2.7611   -13.4687    -3.7869 N.pl3   
  27 C27            1.9984   -14.5897    -3.7671 C.2     
  28 C28            2.5742   -15.5149    -4.5935 C.2     
  29 C29            3.7767   -14.8804    -5.1437 C.2     
  30 C30            3.8291   -13.6422    -4.6209 C.2     
  31 C31            4.7574   -15.4932    -6.1101 C.3     
  32 C32            0.7335   -14.7829    -2.9710 C.3     
  33 C33            2.0988   -16.8378    -4.8664 C.1     
  34 N34            1.7216   -17.8873    -5.0829 N.1     
  35 H35           -0.6761    -0.4746     1.1024 H       
  36 H36           -0.7388    -0.4345    -0.6760 H       
  37 H37            1.7192    -0.1172    -0.7555 H       
  38 H38            1.7819    -0.1573     1.0229 H       
  39 H39           -1.4453     3.0244     0.3123 H       
  40 H40            4.7103    -4.1635    -0.0622 H       
  41 H41            4.7977    -6.6209    -0.1195 H       
  42 H42            0.5373    -6.7952     0.0268 H       
  43 H43            0.4281    -4.3390     0.0959 H       
  44 H44            0.4912    -2.5033     0.1247 H       
  45 H45            3.7001    -8.6738    -0.4797 H       
  46 H46            3.2953    -8.4618     1.9908 H       
  47 H47            1.5536    -8.6707     1.6886 H       
  48 H48            1.9986   -10.8779     0.6499 H       
  49 H49            3.7402   -10.6690     0.9521 H       
  50 H50            3.3011   -10.5326     3.3887 H       
  51 H51            1.5595   -10.7415     3.0865 H       
  52 H52            2.6921   -12.0632     2.7145 H       
  53 H53            3.9904   -10.1083    -0.9746 H       
  54 H54            4.4670   -12.1604    -2.2463 H       
  55 H55            0.4527   -12.1796    -3.7170 H       
  56 H56           -0.0253   -10.1333    -2.4365 H       
  57 H57            4.5926   -12.9061    -4.8251 H       
  58 H58            4.4424   -15.2797    -7.1316 H       
  59 H59            5.7477   -15.0710    -5.9395 H       
  60 H60            4.7913   -16.5720    -5.9583 H       
  61 H61           -0.1229   -14.4683    -3.5676 H       
  62 H62            0.6265   -15.8354    -2.7086 H       
  63 H63            0.7818   -14.1847    -2.0612 H       
@<TRIPOS>BOND
   1    1    2 1
   2    1    4 2
   3    1    5 1
   4    2    3 1
   5    2   35 1
   6    2   36 1
   7    3   14 1
   8    3   37 1
   9    3   38 1
  10    5   39 1
  11    6    7 1
  12    6   13 2
  13    6   14 am
  14    7    8 ar
  15    7   12 ar
  16    8    9 ar
  17    8   40 1
  18    9   10 ar
  19    9   41 1
  20   10   11 ar
  21   10   15 1
  22   11   12 ar
  23   11   42 1
  24   12   43 1
  25   14   44 1
  26   15   16 1
  27   15   19 1
  28   15   45 1
  29   16   17 1
  30   16   46 1
  31   16   47 1
  32   17   18 1
  33   17   48 1
  34   17   49 1
  35   18   50 1
  36   18   51 1
  37   18   52 1
  38   19   20 1
  39   20   21 ar
  40   20   25 ar
  41   21   22 ar
  42   21   53 1
  43   22   23 ar
  44   22   54 1
  45   23   24 ar
  46   23   26 1
  47   24   25 ar
  48   24   55 1
  49   25   56 1
  50   26   27 1
  51   26   30 1
  52   27   28 2
  53   27   32 1
  54   28   29 1
  55   28   33 1
  56   29   30 2
  57   29   31 1
  58   30   57 1
  59   31   58 1
  60   31   59 1
  61   31   60 1
  62   32   61 1
  63   32   62 1
  64   32   63 1
  65   33   34 3

#	End of record

