#	Name: ASD01148182
#	Creating user name:	WinNT
#	Creation time:	15. 06. 2019 19:02

#	Modifying user name:	WinNT
#	Modification time:	15. 06. 2019 19:02

#	Program:	/corina/corina34_cracker 3.40 0067  02.08.2006

@<TRIPOS>MOLECULE
ASD01148182
  43   45    0    0    0
SMALL
NO_CHARGES


@<TRIPOS>ATOM
   1 C1            -0.0167     1.3793     0.0096 C.ar    
   2 C2             0.0021    -0.0041     0.0020 C.ar    
   3 C3             1.2098    -0.6789    -0.0131 C.ar    
   4 C4             2.3967     0.0292    -0.0207 C.ar    
   5 C5             2.3773     1.4115    -0.0131 C.ar    
   6 C6             1.1709     2.0863     0.0021 C.ar    
   7 C7             3.6719     2.1830    -0.0208 C.3     
   8 O8             4.6968     1.4643    -0.7367 O.3     
   9 C9             3.5429     3.4728    -0.8657 C.3     
  10 C10            4.0465     3.0278    -2.2256 C.2     
  11 N11            4.6717     1.9080    -2.0789 N.2     
  12 C12            3.8544     3.7508    -3.4981 C.ar    
  13 C13            4.3730     3.2265    -4.6848 C.ar    
  14 C14            3.1489     4.9567    -3.5169 C.ar    
  15 C15            2.9698     5.6308    -4.7036 C.ar    
  16 C16            3.4934     5.1094    -5.8891 C.ar    
  17 C17            4.1938     3.9009    -5.8714 C.ar    
  18 C18            3.3006     5.8331    -7.1632 C.2     
  19 O19            2.6864     6.8820    -7.1796 O.2     
  20 N20            3.8057     5.3301    -8.3071 N.am    
  21 C21            4.1230     2.5044     1.4054 C.3     
  22 F22            4.2976     1.3138     2.1189 F       
  23 F23            5.3330     3.2055     1.3649 F       
  24 F24            3.1509     3.2880     2.0366 F       
  25 Cl25          -1.4892    -0.8928     0.0121 Cl      
  26 C26            3.6146     6.0475    -9.5700 C.3     
  27 C27            4.2810     5.2677   -10.7053 C.3     
  28 F28            3.7044     3.9965   -10.7992 F       
  29 F29            4.0985     5.9528   -11.9114 F       
  30 F30            5.6494     5.1409   -10.4434 F       
  31 H31           -0.9592     1.9066     0.0170 H       
  32 H32            1.2250    -1.7588    -0.0187 H       
  33 H33            3.3395    -0.4974    -0.0321 H       
  34 H34            1.1564     3.1662     0.0080 H       
  35 H35            2.5031     3.7945    -0.9245 H       
  36 H36            4.1719     4.2654    -0.4605 H       
  37 H37            4.9149     2.2924    -4.6711 H       
  38 H38            2.7437     5.3596    -2.6004 H       
  39 H39            2.4241     6.5627    -4.7182 H       
  40 H40            4.5986     3.4979    -6.7880 H       
  41 H41            4.2958     4.4931    -8.2940 H       
  42 H42            2.5485     6.1463    -9.7741 H       
  43 H43            4.0639     7.0379    -9.4969 H       
@<TRIPOS>BOND
   1    1    2 ar
   2    1    6 ar
   3    1   31 1
   4    2    3 ar
   5    2   25 1
   6    3    4 ar
   7    3   32 1
   8    4    5 ar
   9    4   33 1
  10    5    6 ar
  11    5    7 1
  12    6   34 1
  13    7    8 1
  14    7    9 1
  15    7   21 1
  16    8   11 1
  17    9   10 1
  18    9   35 1
  19    9   36 1
  20   10   11 2
  21   10   12 1
  22   12   13 ar
  23   12   14 ar
  24   13   17 ar
  25   13   37 1
  26   14   15 ar
  27   14   38 1
  28   15   16 ar
  29   15   39 1
  30   16   17 ar
  31   16   18 1
  32   17   40 1
  33   18   19 2
  34   18   20 am
  35   20   26 1
  36   20   41 1
  37   21   22 1
  38   21   23 1
  39   21   24 1
  40   26   27 1
  41   26   42 1
  42   26   43 1
  43   27   28 1
  44   27   29 1
  45   27   30 1

#	End of record

