#	Name: ASD02038673
#	Creating user name:	WinNT
#	Creation time:	15. 06. 2019 20:17

#	Modifying user name:	WinNT
#	Modification time:	15. 06. 2019 20:17

#	Program:	/corina/corina34_cracker 3.40 0067  02.08.2006

@<TRIPOS>MOLECULE
ASD02038673
  45   46    0    0    0
SMALL
NO_CHARGES


@<TRIPOS>ATOM
   1 C1            -0.0167     1.3772     0.0096 C.ar    
   2 C2             0.0021    -0.0041     0.0020 C.ar    
   3 C3             1.2080    -0.6802    -0.0131 C.ar    
   4 C4             1.2255    -2.1871    -0.0219 C.3     
   5 C5             1.2181    -2.6813    -1.4455 C.2     
   6 N6             1.2312    -4.0048    -1.6995 N.am    
   7 C7             1.2239    -4.4852    -3.0835 C.3     
   8 C8             1.2417    -6.0151    -3.0924 C.3     
   9 N9             1.2344    -6.4955    -4.4763 N.am    
  10 C10            1.2438    -9.9255    -7.7695 C.ar    
  11 C11            1.2550    -9.6997    -6.2796 C.3     
  12 N12            1.2408    -8.2610    -6.0035 N.am    
  13 C13            1.1759     2.0860     0.0020 C.ar    
  14 C14            2.3846     1.4052    -0.0132 C.ar    
  15 C15            2.3980     0.0239    -0.0207 C.ar    
  16 O16            1.1601     3.4449     0.0090 O.3     
  17 C17            1.2475    -7.8191    -4.7303 C.2     
  18 O18            1.2003    -1.8879    -2.3627 O.2     
  19 S19            1.2726    -8.9389    -3.4356 S.2     
  20 C20            2.4357   -10.0150    -8.4640 C.ar    
  21 C21            2.4254   -10.2221    -9.8307 C.ar    
  22 C22            1.2232   -10.3400   -10.5029 C.ar    
  23 C23            0.0314   -10.2513    -9.8083 C.ar    
  24 C24            0.0417   -10.0486    -8.4409 C.ar    
  25 H25           -0.9589     1.9049     0.0170 H       
  26 H26           -0.9260    -0.5563     0.0083 H       
  27 H27            2.1244    -2.5429     0.4815 H       
  28 H28            0.3447    -2.5637     0.4981 H       
  29 H29            1.2454    -4.6393    -0.9659 H       
  30 H30            0.3250    -4.1294    -3.5869 H       
  31 H31            2.1047    -4.1086    -3.6034 H       
  32 H32            2.1406    -6.3710    -2.5889 H       
  33 H33            0.3608    -6.3917    -2.5724 H       
  34 H34            1.2202    -5.8610    -5.2099 H       
  35 H35            0.3745   -10.1637    -5.8352 H       
  36 H36            2.1542   -10.1429    -5.8517 H       
  37 H37            1.2266    -7.6265    -6.7371 H       
  38 H38            3.3144     1.9547    -0.0194 H       
  39 H39            3.3387    -0.5065    -0.0325 H       
  40 H40            1.1638     3.8337     0.8944 H       
  41 H41            3.3749    -9.9229    -7.9389 H       
  42 H42            3.3566   -10.2913   -10.3734 H       
  43 H43            1.2152   -10.5010   -11.5708 H       
  44 H44           -0.9079   -10.3431   -10.3335 H       
  45 H45           -0.8895    -9.9793    -7.8982 H       
@<TRIPOS>BOND
   1    1    2 ar
   2    1   13 ar
   3    1   25 1
   4    2    3 ar
   5    2   26 1
   6    3    4 1
   7    3   15 ar
   8    4    5 1
   9    4   27 1
  10    4   28 1
  11    5    6 am
  12    5   18 2
  13    6    7 1
  14    6   29 1
  15    7    8 1
  16    7   30 1
  17    7   31 1
  18    8    9 1
  19    8   32 1
  20    8   33 1
  21    9   17 am
  22    9   34 1
  23   10   11 1
  24   10   20 ar
  25   10   24 ar
  26   11   12 1
  27   11   35 1
  28   11   36 1
  29   12   17 am
  30   12   37 1
  31   13   14 ar
  32   13   16 1
  33   14   15 ar
  34   14   38 1
  35   15   39 1
  36   16   40 1
  37   17   19 2
  38   20   21 ar
  39   20   41 1
  40   21   22 ar
  41   21   42 1
  42   22   23 ar
  43   22   43 1
  44   23   24 ar
  45   23   44 1
  46   24   45 1

#	End of record

