#	Name: ASD01880900
#	Creating user name:	WinNT
#	Creation time:	15. 06. 2019 19:41

#	Modifying user name:	WinNT
#	Modification time:	15. 06. 2019 19:41

#	Program:	/corina/corina34_cracker 3.40 0067  02.08.2006

@<TRIPOS>MOLECULE
ASD01880900
  52   55    0    0    0
SMALL
NO_CHARGES


@<TRIPOS>ATOM
   1 N1            -0.0312     1.2646    -0.1626 N.ar    
   2 C2             0.0462    -0.0488    -0.2011 C.ar    
   3 N3             1.1908    -0.6850    -0.0497 N.ar    
   4 C4             2.3223    -0.0178     0.1498 C.ar    
   5 C5             2.2877     1.3729     0.1979 C.ar    
   6 C6             1.0583     2.0079     0.0334 C.ar    
   7 C7             3.5464     2.1706     0.4225 C.3     
   8 O8             4.2281     2.3449    -0.8212 O.3     
   9 C9             5.3893     3.0468    -0.7943 C.ar    
  10 C10            6.1039     3.2537    -1.9702 C.ar    
  11 C11            7.2781     3.9643    -1.9416 C.ar    
  12 C12            7.7624     4.4830    -0.7361 C.ar    
  13 C13            7.0405     4.2727     0.4420 C.ar    
  14 C14            5.8606     3.5633     0.4068 C.ar    
  15 C15            8.2719     4.3600    -3.0051 C.3     
  16 N16            9.3234     5.1209    -2.3205 N.am    
  17 C17            9.0254     5.1894    -1.0117 C.2     
  18 O18            9.7019     5.7545    -0.1743 O.2     
  19 C19            7.5502     4.8251     1.7482 C.3     
  20 C20            0.9632     3.4875     0.0752 C.ar    
  21 C21            1.8921     4.2678    -0.6109 C.ar    
  22 C22            1.7988     5.6440    -0.5684 C.ar    
  23 C23            0.7859     6.2493     0.1535 C.ar    
  24 C24           -0.1389     5.4798     0.8363 C.ar    
  25 C25           -0.0589     4.1026     0.7959 C.ar    
  26 C26           10.1820     7.1341    -3.4119 C.3     
  27 C27           10.5039     5.7087    -2.9585 C.3     
  28 O28            3.4936    -0.6819     0.3047 O.3     
  29 C29            3.4435    -2.1086     0.2427 C.3     
  30 H30           -0.8549    -0.6223    -0.3613 H       
  31 H31            3.2895     3.1459     0.8358 H       
  32 H32            4.1936     1.6393     1.1203 H       
  33 H33            5.7355     2.8554    -2.9040 H       
  34 H34            5.3030     3.4014     1.3175 H       
  35 H35            8.6961     3.4706    -3.4711 H       
  36 H36            7.7878     4.9831    -3.7571 H       
  37 H37            7.1514     5.8283     1.8987 H       
  38 H38            7.2287     4.1799     2.5657 H       
  39 H39            8.6391     4.8667     1.7248 H       
  40 H40            2.6837     3.7963    -1.1743 H       
  41 H41            2.5181     6.2497    -1.0997 H       
  42 H42            0.7171     7.3266     0.1846 H       
  43 H43           -0.9274     5.9576     1.3987 H       
  44 H44           -0.7815     3.5028     1.3293 H       
  45 H45            9.3574     7.1113    -4.1244 H       
  46 H46            9.8989     7.7351    -2.5477 H       
  47 H47           11.0603     7.5715    -3.8866 H       
  48 H48           11.3285     5.7316    -2.2460 H       
  49 H49           10.7869     5.1078    -3.8227 H       
  50 H50            3.0585    -2.4167    -0.7294 H       
  51 H51            4.4459    -2.5137     0.3815 H       
  52 H52            2.7880    -2.4837     1.0286 H       
@<TRIPOS>BOND
   1    1    2 ar
   2    1    6 ar
   3    2    3 ar
   4    2   30 1
   5    3    4 ar
   6    4    5 ar
   7    4   28 1
   8    5    6 ar
   9    5    7 1
  10    6   20 1
  11    7    8 1
  12    7   31 1
  13    7   32 1
  14    8    9 1
  15    9   10 ar
  16    9   14 ar
  17   10   11 ar
  18   10   33 1
  19   11   12 ar
  20   11   15 1
  21   12   13 ar
  22   12   17 1
  23   13   14 ar
  24   13   19 1
  25   14   34 1
  26   15   16 1
  27   15   35 1
  28   15   36 1
  29   16   17 am
  30   16   27 1
  31   17   18 2
  32   19   37 1
  33   19   38 1
  34   19   39 1
  35   20   21 ar
  36   20   25 ar
  37   21   22 ar
  38   21   40 1
  39   22   23 ar
  40   22   41 1
  41   23   24 ar
  42   23   42 1
  43   24   25 ar
  44   24   43 1
  45   25   44 1
  46   26   27 1
  47   26   45 1
  48   26   46 1
  49   26   47 1
  50   27   48 1
  51   27   49 1
  52   28   29 1
  53   29   50 1
  54   29   51 1
  55   29   52 1

#	End of record

