#	Name: ASD03950026
#	Creating user name:	WinNT
#	Creation time:	15. 06. 2019 20:48

#	Modifying user name:	WinNT
#	Modification time:	15. 06. 2019 20:48

#	Program:	/corina/corina34_cracker 3.40 0067  02.08.2006

@<TRIPOS>MOLECULE
ASD03950026
  76   80    0    0    0
SMALL
NO_CHARGES


@<TRIPOS>ATOM
   1 N1            -0.0701     1.8208    -0.1222 N.pl3   
   2 N2            -0.1143     0.4312     0.0286 N.2     
   3 C3             1.0940    -0.0489     0.1006 C.2     
   4 C4             2.0240     1.0726    -0.0067 C.ar    
   5 C5             3.4175     1.1770     0.0041 C.ar    
   6 C6             4.0191     2.4213    -0.1222 C.ar    
   7 C7             3.2407     3.5720    -0.2603 C.ar    
   8 C8             1.8541     3.4849    -0.2724 C.ar    
   9 C9             1.2330     2.2286    -0.1455 C.ar    
  10 C10            1.0365     4.7041    -0.4187 C.2     
  11 O11           -0.1768     4.6249    -0.4289 O.2     
  12 N12            1.6344     5.9058    -0.5409 N.am    
  13 N13            0.8825    -4.2523     0.5557 N.am    
  14 C14            1.2813    -3.4986     1.7522 C.3     
  15 C15            0.8724    -2.0334     1.5710 C.3     
  16 C16            1.4660    -1.4999     0.2653 C.3     
  17 C17            0.9147    -2.3046    -0.9140 C.3     
  18 C18            1.3242    -3.7728    -0.7611 C.3     
  19 S19           -0.0416    -5.6200     0.6892 S.o2    
  20 O20            0.2835    -6.3769    -0.4687 O.2     
  21 O21            0.2466    -6.1119     1.9908 O.2     
  22 C22           -1.7516    -5.0215     0.5990 C.3     
  23 C23           -2.7132    -6.2061     0.7122 C.3     
  24 C24           -4.1555    -5.7013     0.6362 C.3     
  25 N25           -5.0788    -6.8387     0.7449 N.3     
  26 C26           -6.4686    -6.3768     0.9147 C.3     
  27 C27           -7.2996    -6.9977    -0.2279 C.3     
  28 C28           -6.4524    -8.2277    -0.6477 C.3     
  29 C29           -5.0106    -7.6935    -0.4596 C.3     
  30 C30            5.4991     2.5294    -0.1100 C.ar    
  31 C31            6.1088     3.7764    -0.2365 C.ar    
  32 C32            7.4839     3.8747    -0.2249 C.ar    
  33 C33            8.2623     2.7313    -0.0872 C.ar    
  34 C34            7.6562     1.4867     0.0386 C.ar    
  35 C35            6.2812     1.3848     0.0338 C.ar    
  36 N36            9.6546     2.8330    -0.0757 N.am    
  37 S37           10.4316     3.4105     1.2678 S.o2    
  38 O38           11.8100     3.3535     0.9271 O.2     
  39 O39            9.7937     4.6518     1.5351 O.2     
  40 C40           10.0466     2.2042     2.5668 C.3     
  41 H41           -0.8425     2.4023    -0.2017 H       
  42 H42            4.0254     0.2908     0.1110 H       
  43 H43            3.7190     4.5353    -0.3580 H       
  44 H44            2.6023     5.9690    -0.5327 H       
  45 H45            1.0969     6.7075    -0.6370 H       
  46 H46            0.7812    -3.9120     2.6280 H       
  47 H47            2.3617    -3.5631     1.8814 H       
  48 H48           -0.2146    -1.9612     1.5328 H       
  49 H49            1.2473    -1.4448     2.4084 H       
  50 H50            2.5514    -1.5955     0.2941 H       
  51 H51           -0.1726    -2.2298    -0.9289 H       
  52 H52            1.3199    -1.9091    -1.8454 H       
  53 H53            2.4081    -3.8597    -0.8368 H       
  54 H54            0.8523    -4.3672    -1.5435 H       
  55 H55           -1.9361    -4.3243     1.4164 H       
  56 H56           -1.9096    -4.5150    -0.3532 H       
  57 H57           -2.5287    -6.9032    -0.1051 H       
  58 H58           -2.5553    -6.7126     1.6644 H       
  59 H59           -4.3401    -5.0042     1.4535 H       
  60 H60           -4.3135    -5.1948    -0.3160 H       
  61 H61           -6.8552    -6.7101     1.8778 H       
  62 H62           -6.5081    -5.2892     0.8532 H       
  63 H63           -8.2793    -7.3098     0.1337 H       
  64 H64           -7.3989    -6.2970    -1.0569 H       
  65 H65           -6.6434    -9.0760     0.0096 H       
  66 H66           -6.6379    -8.4927    -1.6886 H       
  67 H67           -4.7079    -7.1051    -1.3258 H       
  68 H68           -4.3177    -8.5195    -0.2999 H       
  69 H69            5.5044     4.6650    -0.3439 H       
  70 H70            7.9568     4.8407    -0.3233 H       
  71 H71            8.2627     0.5994     0.1448 H       
  72 H72            5.8106     0.4181     0.1364 H       
  73 H73           10.1669     2.5653    -0.8547 H       
  74 H74           10.3370     1.2075     2.2347 H       
  75 H75           10.5951     2.4593     3.4736 H       
  76 H76            8.9764     2.2211     2.7727 H       
@<TRIPOS>BOND
   1    1    2 1
   2    1    9 1
   3    1   41 1
   4    2    3 2
   5    3    4 1
   6    3   16 1
   7    4    5 ar
   8    4    9 ar
   9    5    6 ar
  10    5   42 1
  11    6    7 ar
  12    6   30 1
  13    7    8 ar
  14    7   43 1
  15    8    9 ar
  16    8   10 1
  17   10   11 2
  18   10   12 am
  19   12   44 1
  20   12   45 1
  21   13   14 1
  22   13   18 1
  23   13   19 am
  24   14   15 1
  25   14   46 1
  26   14   47 1
  27   15   16 1
  28   15   48 1
  29   15   49 1
  30   16   17 1
  31   16   50 1
  32   17   18 1
  33   17   51 1
  34   17   52 1
  35   18   53 1
  36   18   54 1
  37   19   20 2
  38   19   21 2
  39   19   22 1
  40   22   23 1
  41   22   55 1
  42   22   56 1
  43   23   24 1
  44   23   57 1
  45   23   58 1
  46   24   25 1
  47   24   59 1
  48   24   60 1
  49   25   26 1
  50   25   29 1
  51   26   27 1
  52   26   61 1
  53   26   62 1
  54   27   28 1
  55   27   63 1
  56   27   64 1
  57   28   29 1
  58   28   65 1
  59   28   66 1
  60   29   67 1
  61   29   68 1
  62   30   31 ar
  63   30   35 ar
  64   31   32 ar
  65   31   69 1
  66   32   33 ar
  67   32   70 1
  68   33   34 ar
  69   33   36 1
  70   34   35 ar
  71   34   71 1
  72   35   72 1
  73   36   37 am
  74   36   73 1
  75   37   38 2
  76   37   39 2
  77   37   40 1
  78   40   74 1
  79   40   75 1
  80   40   76 1

#	End of record

