#	Name: ASD03330688
#	Creating user name:	WinNT
#	Creation time:	15. 06. 2019 20:37

#	Modifying user name:	WinNT
#	Modification time:	15. 06. 2019 20:37

#	Program:	/corina/corina34_cracker 3.40 0067  02.08.2006

@<TRIPOS>MOLECULE
ASD03330688
  64   67    0    0    0
SMALL
NO_CHARGES


@<TRIPOS>ATOM
   1 C1            -0.3192     1.1669     0.8902 C.2     
   2 N2            -0.3442    -0.1659     1.1266 N.pl3   
   3 C3             0.9857     1.5567     0.9222 C.2     
   4 N4             1.7372     0.4595     1.1590 N.2     
   5 C5             0.9466    -0.5812     1.2774 C.2     
   6 C6             1.3821    -1.9720     1.5327 C.ar    
   7 C7             1.4876     2.9291     0.7317 C.2     
   8 O8             0.7074     3.8384     0.5231 O.2     
   9 C9             3.3102     4.5409     0.5992 C.3     
  10 N10            2.8112     3.1765     0.7886 N.am    
  11 C11            3.4706     4.8223    -0.8961 C.3     
  12 C12            2.0967     4.8029    -1.5690 C.3     
  13 C13            4.1143     6.1967    -1.0902 C.3     
  14 C14            4.6446     4.6873     1.2840 C.2     
  15 N15            5.1782     5.9116     1.4653 N.am    
  16 O16            5.2383     3.7035     1.6719 O.2     
  17 C17           -1.5520    -0.9912     1.2150 C.3     
  18 C18           -2.4711    -0.6660     0.0336 C.3     
  19 C19           -3.3818     0.5029     0.3959 C.3     
  20 N20           -2.6969     1.4478     1.2805 N.3     
  21 C21           -1.5204     2.0369     0.6243 C.3     
  22 C22            2.6318    -2.4069     1.0907 C.ar    
  23 C23            0.5471    -2.8522     2.2213 C.ar    
  24 C24            0.9590    -4.1479     2.4561 C.ar    
  25 C25            2.1973    -4.5747     2.0107 C.ar    
  26 C26            3.0321    -3.7052     1.3318 C.ar    
  27 C27           -3.6173     2.4929     1.7482 C.3     
  28 C28            6.5075     6.0497     2.0654 C.3     
  29 C29            4.3614     3.7486    -1.5243 C.3     
  30 C30            7.3045     7.3130     1.7338 C.3     
  31 C31            6.6945     7.1366     3.1258 C.3     
  32 H32            2.6019     5.2496     1.0283 H       
  33 H33            3.4335     2.4513     0.9550 H       
  34 H34            1.4621     5.5678    -1.1214 H       
  35 H35            2.2110     5.0034    -2.6343 H       
  36 H36            1.6382     3.8237    -1.4307 H       
  37 H37            5.0752     6.2237    -0.5764 H       
  38 H38            4.2657     6.3800    -2.1539 H       
  39 H39            3.4604     6.9655    -0.6785 H       
  40 H40            4.6821     6.7013     1.1986 H       
  41 H41           -1.2761    -2.0452     1.1825 H       
  42 H42           -2.0710    -0.7783     2.1496 H       
  43 H43           -1.8666    -0.3994    -0.8334 H       
  44 H44           -3.0789    -1.5391    -0.2039 H       
  45 H45           -3.6813     1.0193    -0.5162 H       
  46 H46           -4.2706     0.1217     0.8986 H       
  47 H47           -1.3425     3.0356     1.0233 H       
  48 H48           -1.6951     2.0985    -0.4499 H       
  49 H49            3.2844    -1.7290     0.5606 H       
  50 H50           -0.4195    -2.5200     2.5702 H       
  51 H51            0.3135    -4.8303     2.9891 H       
  52 H52            2.5154    -5.5897     2.1976 H       
  53 H53            3.9974    -4.0444     0.9862 H       
  54 H54           -4.4398     2.0338     2.2967 H       
  55 H55           -3.0830     3.1810     2.4033 H       
  56 H56           -4.0120     3.0393     0.8916 H       
  57 H57            7.0650     5.1216     2.1917 H       
  58 H58            3.9029     2.7695    -1.3860 H       
  59 H59            4.4758     3.9491    -2.5896 H       
  60 H60            5.3402     3.7625    -1.0449 H       
  61 H61            8.3863     7.2160     1.6424 H       
  62 H62            6.8397     8.0413     1.0692 H       
  63 H63            5.8284     7.7490     3.3770 H       
  64 H64            7.3750     6.9237     3.9502 H       
@<TRIPOS>BOND
   1    1    2 1
   2    1    3 2
   3    1   21 1
   4    2   17 1
   5    2    5 1
   6    3    4 1
   7    3    7 1
   8    4    5 2
   9    5    6 1
  10    6   22 ar
  11    6   23 ar
  12    7    8 2
  13    7   10 am
  14    9   10 1
  15    9   11 1
  16    9   14 1
  17    9   32 1
  18   10   33 1
  19   11   12 1
  20   11   13 1
  21   11   29 1
  22   12   34 1
  23   12   35 1
  24   12   36 1
  25   13   37 1
  26   13   38 1
  27   13   39 1
  28   14   15 am
  29   14   16 2
  30   15   28 1
  31   15   40 1
  32   17   18 1
  33   17   41 1
  34   17   42 1
  35   18   19 1
  36   18   43 1
  37   18   44 1
  38   19   20 1
  39   19   45 1
  40   19   46 1
  41   20   21 1
  42   20   27 1
  43   21   47 1
  44   21   48 1
  45   22   26 ar
  46   22   49 1
  47   23   24 ar
  48   23   50 1
  49   24   25 ar
  50   24   51 1
  51   25   26 ar
  52   25   52 1
  53   26   53 1
  54   27   54 1
  55   27   55 1
  56   27   56 1
  57   28   30 1
  58   28   31 1
  59   28   57 1
  60   29   58 1
  61   29   59 1
  62   29   60 1
  63   30   31 1
  64   30   61 1
  65   30   62 1
  66   31   63 1
  67   31   64 1

#	End of record

