#	Name: ASD01910804
#	Creating user name:	WinNT
#	Creation time:	15. 06. 2019 19:56

#	Modifying user name:	WinNT
#	Modification time:	15. 06. 2019 19:56

#	Program:	/corina/corina34_cracker 3.40 0067  02.08.2006

@<TRIPOS>MOLECULE
ASD01910804
  51   54    0    0    0
SMALL
NO_CHARGES


@<TRIPOS>ATOM
   1 C1            -0.2513     1.1532     0.3139 C.ar    
   2 C2            -0.1687    -0.2224     0.2364 C.ar    
   3 N3             1.0025    -0.8279     0.1776 N.ar    
   4 C4             2.1376    -0.1465     0.1904 C.ar    
   5 C5             2.1287     1.2427     0.2670 C.ar    
   6 C6             0.9163     1.9050     0.3299 C.ar    
   7 N7             3.3491    -0.8252     0.1271 N.3     
   8 C8             3.1360    -2.2767     0.0523 C.3     
   9 C9             4.4774    -2.9743    -0.1977 C.3     
  10 N10            5.4303    -2.5379     0.8342 N.am    
  11 C11            5.5962    -1.0945     1.0624 C.3     
  12 C12            4.2109    -0.4709     1.2628 C.3     
  13 C13            6.1326    -3.4370     1.5518 C.2     
  14 C14            7.1760    -2.9784     2.4938 C.ar    
  15 O15            5.9082    -4.6248     1.4246 O.2     
  16 C16            7.3474    -3.6140     3.7251 C.ar    
  17 N17            8.2740    -3.2122     4.5712 N.ar    
  18 C18            9.0766    -2.2031     4.3020 C.ar    
  19 C19            8.9752    -1.5092     3.0922 C.ar    
  20 C20            8.0086    -1.9062     2.1622 C.ar    
  21 C21            9.8509    -0.4126     2.8075 C.1     
  22 C22           10.5688     0.4865     2.5741 C.1     
  23 C23           11.4446     1.5832     2.2893 C.ar    
  24 C24           11.3368     2.2715     1.0781 C.ar    
  25 C25           12.1834     3.3270     0.8110 C.ar    
  26 C26           13.1377     3.7049     1.7390 C.ar    
  27 C27           13.2506     3.0277     2.9405 C.ar    
  28 C28           12.4072     1.9739     3.2239 C.ar    
  29 C29           -1.4322    -1.0435     0.2192 C.3     
  30 F30           -1.8523    -1.2252    -1.1028 F       
  31 F31           -1.1865    -2.2896     0.8058 F       
  32 F32           -2.4306    -0.3781     0.9386 F       
  33 H33           -1.2143     1.6402     0.3572 H       
  34 H34            3.0560     1.7962     0.2777 H       
  35 H35            0.8783     2.9827     0.3897 H       
  36 H36            2.7114    -2.6309     0.9916 H       
  37 H37            2.4510    -2.5021    -0.7650 H       
  38 H38            4.3446    -4.0546    -0.1401 H       
  39 H39            4.8542    -2.7008    -1.1833 H       
  40 H40            6.2032    -0.9320     1.9531 H       
  41 H41            6.0806    -0.6403     0.1980 H       
  42 H42            4.3053     0.6133     1.3234 H       
  43 H43            3.7712    -0.8503     2.1852 H       
  44 H44            6.7113    -4.4463     3.9878 H       
  45 H45            9.8224    -1.9076     5.0251 H       
  46 H46            7.9031    -1.3928     1.2179 H       
  47 H47           10.5927     1.9774     0.3527 H       
  48 H48           12.1015     3.8597    -0.1249 H       
  49 H49           13.7980     4.5322     1.5245 H       
  50 H50           13.9980     3.3279     3.6600 H       
  51 H51           12.4962     1.4464     4.1621 H       
@<TRIPOS>BOND
   1    1    2 ar
   2    1    6 ar
   3    1   33 1
   4    2    3 ar
   5    2   29 1
   6    3    4 ar
   7    4    5 ar
   8    4    7 1
   9    5    6 ar
  10    5   34 1
  11    6   35 1
  12    7    8 1
  13    7   12 1
  14    8    9 1
  15    8   36 1
  16    8   37 1
  17    9   10 1
  18    9   38 1
  19    9   39 1
  20   10   11 1
  21   10   13 am
  22   11   12 1
  23   11   40 1
  24   11   41 1
  25   12   42 1
  26   12   43 1
  27   13   14 1
  28   13   15 2
  29   14   16 ar
  30   14   20 ar
  31   16   17 ar
  32   16   44 1
  33   17   18 ar
  34   18   19 ar
  35   18   45 1
  36   19   20 ar
  37   19   21 1
  38   20   46 1
  39   21   22 3
  40   22   23 1
  41   23   24 ar
  42   23   28 ar
  43   24   25 ar
  44   24   47 1
  45   25   26 ar
  46   25   48 1
  47   26   27 ar
  48   26   49 1
  49   27   28 ar
  50   27   50 1
  51   28   51 1
  52   29   30 1
  53   29   31 1
  54   29   32 1

#	End of record

