#	Name: ASD01870434
#	Creating user name:	WinNT
#	Creation time:	15. 06. 2019 19:39

#	Modifying user name:	WinNT
#	Modification time:	15. 06. 2019 19:39

#	Program:	/corina/corina34_cracker 3.40 0067  02.08.2006

@<TRIPOS>MOLECULE
ASD01870434
  59   63    0    0    0
SMALL
NO_CHARGES


@<TRIPOS>ATOM
   1 N1             1.2258     0.8047    -0.1766 N.am    
   2 C2             0.8648    -0.4879    -0.3009 C.2     
   3 C3            -0.5760    -0.8889    -0.1157 C.3     
   4 O4             1.6995    -1.3282    -0.5618 O.2     
   5 C5            -0.8266    -2.3979    -0.2896 C.3     
   6 N6            -1.7119    -2.2844     0.8857 N.am    
   7 C7            -0.9782    -1.0934     1.3562 C.3     
   8 S8            -3.0080    -3.1469     1.4500 S.o2    
   9 C9            -2.3954    -4.2860     2.6465 C.ar    
  10 C10           -1.5052    -5.2878     2.2649 C.ar    
  11 O11           -3.8269    -2.2249     2.1561 O.2     
  12 O12           -3.4778    -3.9257     0.3581 O.2     
  13 C13           -2.7920    -4.1843     3.9644 C.ar    
  14 C14           -2.3111    -5.0774     4.9050 C.ar    
  15 C15           -1.4314    -6.0768     4.5307 C.ar    
  16 C16           -1.0244    -6.1848     3.2161 C.ar    
  17 C17            2.6263     1.2177    -0.3533 C.3     
  18 C18            2.6693     2.3775    -1.3538 C.3     
  19 N19            1.7600     3.4407    -0.9055 N.3     
  20 C20            0.3670     2.9750    -0.8805 C.3     
  21 C21            0.2287     1.8405     0.1334 C.3     
  22 C22            1.8919     4.5768    -1.6983 C.ar    
  23 C23            1.1224     5.7139    -1.4527 C.ar    
  24 C24            2.8011     4.6102    -2.7554 C.ar    
  25 C25            2.9013     5.7553    -3.5171 C.ar    
  26 N26            2.1510     6.8094    -3.2561 N.ar    
  27 C27            1.2833     6.8192    -2.2615 C.ar    
  28 C28           -1.0711    -5.3990     0.8499 C.2     
  29 C29            0.2598    -5.3998     0.3891 C.2     
  30 C30            0.2321    -5.5186    -0.9562 C.2     
  31 N31           -1.0600    -5.5908    -1.3418 N.pl3   
  32 N32           -1.8618    -5.5199    -0.1954 N.2     
  33 C33           -1.5399    -5.7259    -2.7194 C.3     
  34 H34           -1.2674    -0.2615    -0.6782 H       
  35 H35           -1.3501    -2.6529    -1.2110 H       
  36 H36            0.0567    -3.0127    -0.1166 H       
  37 H37           -0.1394    -1.3251     2.0127 H       
  38 H38           -1.6227    -0.3070     1.7488 H       
  39 H39           -3.4788    -3.4057     4.2620 H       
  40 H40           -2.6234    -4.9938     5.9354 H       
  41 H41           -1.0587    -6.7712     5.2692 H       
  42 H42           -0.3374    -6.9656     2.9248 H       
  43 H43            3.0354     1.5437     0.6030 H       
  44 H44            3.2092     0.3806    -0.7378 H       
  45 H45            3.6849     2.7688    -1.4137 H       
  46 H46            2.3574     2.0223    -2.3360 H       
  47 H47           -0.2871     3.7996    -0.5971 H       
  48 H48            0.0872     2.6115    -1.8692 H       
  49 H49           -0.7734     1.4160     0.0734 H       
  50 H50            0.4076     2.2235     1.1381 H       
  51 H51            0.4104     5.7284    -0.6408 H       
  52 H52            3.4183     3.7513    -2.9742 H       
  53 H53            3.6029     5.7902    -4.3374 H       
  54 H54            0.6884     7.7024    -2.0816 H       
  55 H55            1.1452    -5.3192     1.0023 H       
  56 H56            1.0921    -5.5499    -1.6088 H       
  57 H57           -1.6562    -6.7822    -2.9616 H       
  58 H58           -2.5011    -5.2219    -2.8204 H       
  59 H59           -0.8193    -5.2740    -3.4010 H       
@<TRIPOS>BOND
   1    1    2 am
   2    1   17 1
   3    1   21 1
   4    2    3 1
   5    2    4 2
   6    3    5 1
   7    3    7 1
   8    3   34 1
   9    5    6 1
  10    5   35 1
  11    5   36 1
  12    6    7 1
  13    6    8 am
  14    7   37 1
  15    7   38 1
  16    8    9 1
  17    8   11 2
  18    8   12 2
  19    9   13 ar
  20    9   10 ar
  21   10   28 1
  22   10   16 ar
  23   13   14 ar
  24   13   39 1
  25   14   15 ar
  26   14   40 1
  27   15   16 ar
  28   15   41 1
  29   16   42 1
  30   17   18 1
  31   17   43 1
  32   17   44 1
  33   18   19 1
  34   18   45 1
  35   18   46 1
  36   19   20 1
  37   19   22 1
  38   20   21 1
  39   20   47 1
  40   20   48 1
  41   21   49 1
  42   21   50 1
  43   22   23 ar
  44   22   24 ar
  45   23   27 ar
  46   23   51 1
  47   24   25 ar
  48   24   52 1
  49   25   26 ar
  50   25   53 1
  51   26   27 ar
  52   27   54 1
  53   28   29 1
  54   28   32 2
  55   29   30 2
  56   29   55 1
  57   30   31 1
  58   30   56 1
  59   31   32 1
  60   31   33 1
  61   33   57 1
  62   33   58 1
  63   33   59 1

#	End of record

