#	Name: ASD01411217
#	Creating user name:	WinNT
#	Creation time:	15. 06. 2019 19:19

#	Modifying user name:	WinNT
#	Modification time:	15. 06. 2019 19:19

#	Program:	/corina/corina34_cracker 3.40 0067  02.08.2006

@<TRIPOS>MOLECULE
ASD01411217
  64   67    0    0    0
SMALL
NO_CHARGES


@<TRIPOS>ATOM
   1 C1            -0.5136    -0.0043    -2.0023 C.ar    
   2 C2            -0.2377    -1.3464    -1.9237 C.ar    
   3 C3             1.0271    -1.8401    -2.2366 C.ar    
   4 C4             2.0231    -0.9555    -2.6274 C.ar    
   5 C5             1.7519     0.3965    -2.7060 C.ar    
   6 C6             0.4873     0.8791    -2.3967 C.ar    
   7 P7            -1.5006    -2.5472    -1.4043 P.3     
   8 N8            -0.7152    -3.9617    -1.0939 N.2     
   9 C9             0.5139    -4.1150    -1.4813 C.2     
  10 N10            1.2715    -3.2099    -2.1594 N.pl3   
  11 C11            1.1559    -5.4016    -1.1527 C.2     
  12 C12            0.5650    -6.4287    -0.4820 C.2     
  13 C13            1.5978    -7.5276    -0.3806 C.3     
  14 N14            2.7995    -7.0160    -1.0505 N.am    
  15 C15            2.5277    -5.7785    -1.5018 C.2     
  16 O16           -2.1812    -2.0677    -0.1807 O.2     
  17 O17           -2.5742    -2.7616    -2.5847 O.3     
  18 O18           -0.6909    -6.4593    -0.0034 O.3     
  19 O19            3.3101    -5.0720    -2.1093 O.2     
  20 C20           -3.3724    -1.7006    -3.1130 C.3     
  21 C21           -4.2810    -2.2466    -4.2162 C.3     
  22 C22            1.9018    -7.8313     1.0878 C.3     
  23 C23            0.5954    -8.1200     1.8300 C.3     
  24 C24            2.8194    -9.0523     1.1767 C.3     
  25 C25            2.5946    -6.6252     1.7252 C.3     
  26 N26            0.2195     2.2500    -2.4816 N.am    
  27 S27            0.1186     3.1609    -1.1024 S.o2    
  28 O28           -0.0471     4.4916    -1.5727 O.2     
  29 O29           -0.8934     2.5238    -0.3348 O.2     
  30 C30            1.7382     2.9630    -0.3098 C.3     
  31 C31            4.0693    -7.7300    -1.2057 C.3     
  32 C32            4.0261    -8.5650    -2.4595 C.2     
  33 C33            4.4010    -8.1706    -3.6800 C.2     
  34 N34            4.2671    -9.0885    -4.6161 N.2     
  35 C35            3.7999   -10.2351    -4.2531 C.2     
  36 S36            3.4794   -10.2361    -2.5737 S.3     
  37 H37           -1.5008     0.3632    -1.7642 H       
  38 H38            3.0090    -1.3241    -2.8694 H       
  39 H39            2.5285     1.0826    -3.0103 H       
  40 H40            2.0493    -3.5479    -2.6303 H       
  41 H41            1.2408    -8.4260    -0.8843 H       
  42 H42           -1.2351    -5.6731    -0.1480 H       
  43 H43           -3.9831    -1.2744    -2.3171 H       
  44 H44           -2.7232    -0.9285    -3.5259 H       
  45 H45           -4.9302    -3.0187    -3.8033 H       
  46 H46           -4.8899    -1.4372    -4.6192 H       
  47 H47           -3.6703    -2.6728    -5.0122 H       
  48 H48            0.1018    -8.9793     1.3759 H       
  49 H49            0.8120    -8.3363     2.8761 H       
  50 H50           -0.0584    -7.2501     1.7666 H       
  51 H51            3.8557    -8.7378     1.0527 H       
  52 H52            2.6981    -9.5279     2.1499 H       
  53 H53            2.5583    -9.7610     0.3908 H       
  54 H54            1.9408    -5.7553     1.6618 H       
  55 H55            2.8112    -6.8415     2.7713 H       
  56 H56            3.5253    -6.4194     1.1964 H       
  57 H57            0.0929     2.6666    -3.3484 H       
  58 H58            2.5233     3.2404    -1.0132 H       
  59 H59            1.7938     3.6059     0.5687 H       
  60 H60            1.8708     1.9239    -0.0086 H       
  61 H61            4.8846    -7.0101    -1.2765 H       
  62 H62            4.2299    -8.3773    -0.3435 H       
  63 H63            4.7826    -7.1808    -3.8827 H       
  64 H64            3.6392   -11.0743    -4.9136 H       
@<TRIPOS>BOND
   1    1    2 ar
   2    1    6 ar
   3    1   37 1
   4    2    3 ar
   5    2    7 1
   6    3    4 ar
   7    3   10 1
   8    4    5 ar
   9    4   38 1
  10    5    6 ar
  11    5   39 1
  12    6   26 1
  13    7    8 1
  14    7   16 2
  15    7   17 1
  16    8    9 2
  17    9   10 1
  18    9   11 1
  19   10   40 1
  20   11   12 2
  21   11   15 1
  22   12   13 1
  23   12   18 1
  24   13   14 1
  25   13   22 1
  26   13   41 1
  27   14   15 am
  28   14   31 1
  29   15   19 2
  30   17   20 1
  31   18   42 1
  32   20   21 1
  33   20   43 1
  34   20   44 1
  35   21   45 1
  36   21   46 1
  37   21   47 1
  38   22   23 1
  39   22   24 1
  40   22   25 1
  41   23   48 1
  42   23   49 1
  43   23   50 1
  44   24   51 1
  45   24   52 1
  46   24   53 1
  47   25   54 1
  48   25   55 1
  49   25   56 1
  50   26   27 am
  51   26   57 1
  52   27   28 2
  53   27   29 2
  54   27   30 1
  55   30   58 1
  56   30   59 1
  57   30   60 1
  58   31   32 1
  59   31   61 1
  60   31   62 1
  61   32   33 2
  62   32   36 1
  63   33   34 1
  64   33   63 1
  65   34   35 2
  66   35   36 1
  67   35   64 1

#	End of record

