#	Name: ASD09610076
#	Creating user name:	WinNT
#	Creation time:	15. 06. 2019 21:22

#	Modifying user name:	WinNT
#	Modification time:	15. 06. 2019 21:22

#	Program:	/corina/corina34_cracker 3.40 0067  02.08.2006

@<TRIPOS>MOLECULE
ASD09610076
  42   43    0    0    0
SMALL
NO_CHARGES


@<TRIPOS>ATOM
   1 N1             0.0419     1.3722     0.3900 N.pl3   
   2 N2             0.0601    -0.0268     0.4157 N.2     
   3 C3             1.2959    -0.4349     0.3264 C.2     
   4 C4             2.1272     0.7042     0.2389 C.2     
   5 C5             1.3056     1.8126     0.2820 C.2     
   6 C6             3.5970     0.7082     0.1237 C.2     
   7 O7             4.2076    -0.3430     0.0964 O.2     
   8 N8             4.2638     1.8770     0.0485 N.am    
   9 C9            -1.1548     2.2142     0.4623 C.3     
  10 C10            1.7562    -1.8699     0.3188 C.3     
  11 F11            0.7631    -2.6752    -0.2489 F       
  12 F12            2.9311    -1.9787    -0.4328 F       
  13 C13            6.1780     3.1670    -0.7599 C.3     
  14 C14            5.7243     1.8810    -0.0661 C.3     
  15 C15            6.3456     1.8084     1.3302 C.3     
  16 O16            5.6957     3.1781    -2.1050 O.3     
  17 C17            6.6144     2.6366    -3.0563 C.3     
  18 C18            5.6277     4.3584    -0.0191 C.ar    
  19 C19            6.3060     4.8665     1.0749 C.ar    
  20 C20            5.8008     5.9600     1.7546 C.ar    
  21 C21            4.6176     6.5452     1.3404 C.ar    
  22 C22            3.9404     6.0363     0.2467 C.ar    
  23 C23            4.4487     4.9469    -0.4358 C.ar    
  24 Cl24           3.9824     7.9173     2.1933 Cl      
  25 Cl25           7.7903     4.1313     1.5942 Cl      
  26 H26            1.6213     2.8445     0.2372 H       
  27 H27            3.7767     2.7156     0.0702 H       
  28 H28           -1.3755     2.4432     1.5049 H       
  29 H29           -0.9806     3.1410    -0.0843 H       
  30 H30           -1.9988     1.6848     0.0201 H       
  31 H31            1.9475    -2.1955     1.3413 H       
  32 H32            7.2670     3.2129    -0.7639 H       
  33 H33            6.0452     1.0196    -0.6517 H       
  34 H34            6.0224     0.8923     1.8245 H       
  35 H35            7.4323     1.8114     1.2450 H       
  36 H36            6.0247     2.6699     1.9159 H       
  37 H37            7.5667     3.1614    -2.9812 H       
  38 H38            6.7665     1.5768    -2.8519 H       
  39 H39            6.2106     2.7585    -4.0614 H       
  40 H40            6.3297     6.3567     2.6087 H       
  41 H41            3.0165     6.4928    -0.0766 H       
  42 H42            3.9222     4.5529    -1.2925 H       
@<TRIPOS>BOND
   1    1    2 1
   2    1    5 1
   3    1    9 1
   4    2    3 2
   5    3    4 1
   6    3   10 1
   7    4    5 2
   8    4    6 1
   9    5   26 1
  10    6    7 2
  11    6    8 am
  12    8   14 1
  13    8   27 1
  14    9   28 1
  15    9   29 1
  16    9   30 1
  17   10   11 1
  18   10   12 1
  19   10   31 1
  20   13   14 1
  21   13   16 1
  22   13   18 1
  23   13   32 1
  24   14   15 1
  25   14   33 1
  26   15   34 1
  27   15   35 1
  28   15   36 1
  29   16   17 1
  30   17   37 1
  31   17   38 1
  32   17   39 1
  33   18   19 ar
  34   18   23 ar
  35   19   20 ar
  36   19   25 1
  37   20   21 ar
  38   20   40 1
  39   21   22 ar
  40   21   24 1
  41   22   23 ar
  42   22   41 1
  43   23   42 1

#	End of record

