#	Name: ASD04930079
#	Creating user name:	WinNT
#	Creation time:	15. 06. 2019 20:56

#	Modifying user name:	WinNT
#	Modification time:	15. 06. 2019 20:56

#	Program:	/corina/corina34_cracker 3.40 0067  02.08.2006

@<TRIPOS>MOLECULE
ASD04930079
  73   74    0    0    0
SMALL
NO_CHARGES


@<TRIPOS>ATOM
   1 N1             0.8154     1.6186    -1.3763 N.am    
   2 C2             0.9870     0.2859    -1.3560 C.2     
   3 C3             0.9711    -0.4539    -0.0948 C.2     
   4 C4             0.7741     0.2446     1.0988 C.2     
   5 C5             0.5909     1.6981     1.0310 C.ar    
   6 C6             0.3895     2.4458     2.1970 C.ar    
   7 C7             0.2202     3.7986     2.1158 C.ar    
   8 C8             0.2460     4.4389     0.8845 C.ar    
   9 C9             0.4428     3.7227    -0.2759 C.ar    
  10 C10            0.6182     2.3425    -0.2184 C.ar    
  11 C11            1.1591    -1.9098    -0.0832 C.2     
  12 O12            2.2694    -2.3812    -0.2430 O.2     
  13 N13            0.1018    -2.7243     0.1045 N.am    
  14 N14           -1.1573    -2.1824     0.3937 N.am    
  15 O15            1.1577    -0.3139    -2.4024 O.2     
  16 O16            0.7524    -0.4013     2.2833 O.3     
  17 C17           -2.1016    -2.1219    -0.5661 C.2     
  18 C18           -3.4560    -1.5390    -0.2549 C.3     
  19 C19           -4.3328    -1.5891    -1.5078 C.3     
  20 C20           -5.7079    -0.9973    -1.1919 C.3     
  21 C21           -6.5847    -1.0475    -2.4447 C.3     
  22 C22           -7.9598    -0.4556    -2.1289 C.3     
  23 C23           -8.8366    -0.5058    -3.3817 C.3     
  24 C24          -10.2117     0.0861    -3.0658 C.3     
  25 C25          -11.0886     0.0359    -4.3186 C.3     
  26 C26          -12.4636     0.6278    -4.0028 C.3     
  27 C27          -13.3405     0.5776    -5.2556 C.3     
  28 C28          -14.7155     1.1694    -4.9397 C.3     
  29 O29           -1.8613    -2.5367    -1.6801 O.2     
  30 C30            0.2692    -4.1764     0.0061 C.3     
  31 C31            0.6197    -4.7347     1.3613 C.2     
  32 C32            1.6900    -5.4758     1.5076 C.2     
  33 C33            2.4971    -5.8802     0.3009 C.3     
  34 C34            2.1140    -5.9238     2.8825 C.3     
  35 H35            0.8345     2.0843    -2.2270 H       
  36 H36            0.3676     1.9541     3.1584 H       
  37 H37            0.0649     4.3743     3.0162 H       
  38 H38            0.1100     5.5092     0.8356 H       
  39 H39            0.4607     4.2309    -1.2287 H       
  40 H40           -1.3495    -1.8506     1.2848 H       
  41 H41            0.8062    -1.3639     2.2074 H       
  42 H42           -3.9261    -2.1166     0.5409 H       
  43 H43           -3.3408    -0.5039     0.0667 H       
  44 H44           -3.8627    -1.0115    -2.3036 H       
  45 H45           -4.4480    -2.6242    -1.8294 H       
  46 H46           -6.1780    -1.5749    -0.3960 H       
  47 H47           -5.5928     0.0378    -0.8702 H       
  48 H48           -6.1146    -0.4698    -3.2406 H       
  49 H49           -6.6999    -2.0825    -2.7664 H       
  50 H50           -8.4299    -1.0332    -1.3330 H       
  51 H51           -7.8447     0.5795    -1.8072 H       
  52 H52           -8.3666     0.0719    -4.1775 H       
  53 H53           -8.9518    -1.5409    -3.7033 H       
  54 H54          -10.6818    -0.4916    -2.2699 H       
  55 H55          -10.0966     1.1212    -2.7441 H       
  56 H56          -10.6185     0.6136    -5.1145 H       
  57 H57          -11.2037    -0.9992    -4.6403 H       
  58 H58          -12.9337     0.0501    -3.2069 H       
  59 H59          -12.3485     1.6628    -3.6811 H       
  60 H60          -12.8704     1.1552    -6.0515 H       
  61 H61          -13.4556    -0.4575    -5.5773 H       
  62 H62          -15.3402     1.1337    -5.8323 H       
  63 H63          -15.1856     0.5918    -4.1438 H       
  64 H64          -14.6004     2.2045    -4.6181 H       
  65 H65           -0.6601    -4.6264    -0.3430 H       
  66 H66            1.0696    -4.4029    -0.6983 H       
  67 H67           -0.0115    -4.5238     2.2119 H       
  68 H68            3.2913    -5.1525     0.1345 H       
  69 H69            2.9351    -6.8639     0.4699 H       
  70 H70            1.8486    -5.9168    -0.5744 H       
  71 H71            1.4138    -5.5369     3.6228 H       
  72 H72            2.1212    -7.0130     2.9236 H       
  73 H73            3.1138    -5.5455     3.0956 H       
@<TRIPOS>BOND
   1    1    2 am
   2    1   10 1
   3    1   35 1
   4    2    3 1
   5    2   15 2
   6    3    4 2
   7    3   11 1
   8    4    5 1
   9    4   16 1
  10    5    6 ar
  11    5   10 ar
  12    6    7 ar
  13    6   36 1
  14    7    8 ar
  15    7   37 1
  16    8    9 ar
  17    8   38 1
  18    9   10 ar
  19    9   39 1
  20   11   12 2
  21   11   13 am
  22   13   14 1
  23   13   30 1
  24   14   17 am
  25   14   40 1
  26   16   41 1
  27   17   18 1
  28   17   29 2
  29   18   19 1
  30   18   42 1
  31   18   43 1
  32   19   20 1
  33   19   44 1
  34   19   45 1
  35   20   21 1
  36   20   46 1
  37   20   47 1
  38   21   22 1
  39   21   48 1
  40   21   49 1
  41   22   23 1
  42   22   50 1
  43   22   51 1
  44   23   24 1
  45   23   52 1
  46   23   53 1
  47   24   25 1
  48   24   54 1
  49   24   55 1
  50   25   26 1
  51   25   56 1
  52   25   57 1
  53   26   27 1
  54   26   58 1
  55   26   59 1
  56   27   28 1
  57   27   60 1
  58   27   61 1
  59   28   62 1
  60   28   63 1
  61   28   64 1
  62   30   31 1
  63   30   65 1
  64   30   66 1
  65   31   32 2
  66   31   67 1
  67   32   33 1
  68   32   34 1
  69   33   68 1
  70   33   69 1
  71   33   70 1
  72   34   71 1
  73   34   72 1
  74   34   73 1

#	End of record

