#	Name: ASD01810328
#	Creating user name:	WinNT
#	Creation time:	15. 06. 2019 19:24

#	Modifying user name:	WinNT
#	Modification time:	15. 06. 2019 19:24

#	Program:	/corina/corina34_cracker 3.40 0067  02.08.2006

@<TRIPOS>MOLECULE
ASD01810328
  52   55    0    0    0
SMALL
NO_CHARGES


@<TRIPOS>ATOM
   1 C1            -0.0167     1.3820     0.0096 C.ar    
   2 C2             0.0021    -0.0041     0.0020 C.ar    
   3 C3             1.1959    -0.6932    -0.0127 C.ar    
   4 C4             2.4016     0.0019    -0.0200 C.ar    
   5 C5             2.3831     1.4075    -0.0128 C.ar    
   6 C6             1.1665     2.0939     0.0022 C.ar    
   7 N7             3.6010    -0.6771    -0.0337 N.pl3   
   8 C8             4.7870    -0.0549    -0.0404 C.2     
   9 C9             4.8957     1.3208    -0.0340 C.2     
  10 C10            3.6667     2.1313    -0.0207 C.2     
  11 O11            3.7091     3.3491    -0.0150 O.2     
  12 C12            3.5775    -2.1419    -0.0409 C.3     
  13 C13            3.5572    -2.6371    -1.4640 C.ar    
  14 C14            4.7472    -2.8827    -2.1252 C.ar    
  15 C15            4.7345    -3.3362    -3.4286 C.ar    
  16 C16            3.5200    -3.5472    -4.0784 C.ar    
  17 C17            2.3242    -3.2985    -3.4073 C.ar    
  18 C18            2.3487    -2.8497    -2.1024 C.ar    
  19 C19            3.5000    -4.0341    -5.4797 C.ar    
  20 C20            6.2161     1.9660    -0.0412 C.2     
  21 O21            6.3092     3.3109    -0.0348 O.3     
  22 O22            7.2244     1.2870    -0.0529 O.2     
  23 C23            4.6899    -4.2842    -6.1565 C.ar    
  24 N24            4.6775    -4.7165    -7.4017 N.ar    
  25 C25            3.5449    -4.9294    -8.0543 C.ar    
  26 C26            2.3149    -4.7015    -7.4428 C.ar    
  27 C27            2.2839    -4.2539    -6.1371 C.ar    
  28 N28            3.5845    -5.3854    -9.3659 N.pl3   
  29 C29            2.3373    -5.6239   -10.0964 C.3     
  30 F30            1.1476     3.4448     0.0091 F       
  31 C31            2.6597    -6.1181   -11.5081 C.3     
  32 O32            3.3025    -7.3921   -11.4316 O.3     
  33 H33           -0.9604     1.9071     0.0170 H       
  34 H34           -0.9295    -0.5505     0.0080 H       
  35 H35            1.1956    -1.7731    -0.0181 H       
  36 H36            5.6884    -0.6497    -0.0508 H       
  37 H37            4.4660    -2.5220     0.4634 H       
  38 H38            2.6863    -2.4936     0.4789 H       
  39 H39            5.6879    -2.7188    -1.6206 H       
  40 H40            5.6642    -3.5270    -3.9441 H       
  41 H41            1.3801    -3.4600    -3.9063 H       
  42 H42            1.4226    -2.6571    -1.5813 H       
  43 H43            7.1990     3.6894    -0.0400 H       
  44 H44            5.6334    -4.1221    -5.6565 H       
  45 H45            1.3958    -4.8772    -7.9820 H       
  46 H46            1.3442    -4.0689    -5.6381 H       
  47 H47            4.4380    -5.5459    -9.7980 H       
  48 H48            1.7483    -6.3773    -9.5734 H       
  49 H49            1.7687    -4.6960   -10.1574 H       
  50 H50            1.7366    -6.2108   -12.0802 H       
  51 H51            3.3221    -5.4059   -12.0000 H       
  52 H52            3.5364    -7.7669   -12.2917 H       
@<TRIPOS>BOND
   1    1    2 ar
   2    1    6 ar
   3    1   33 1
   4    2    3 ar
   5    2   34 1
   6    3    4 ar
   7    3   35 1
   8    4    5 ar
   9    4    7 1
  10    5    6 ar
  11    5   10 1
  12    6   30 1
  13    7    8 1
  14    7   12 1
  15    8    9 2
  16    8   36 1
  17    9   10 1
  18    9   20 1
  19   10   11 2
  20   12   13 1
  21   12   37 1
  22   12   38 1
  23   13   14 ar
  24   13   18 ar
  25   14   15 ar
  26   14   39 1
  27   15   16 ar
  28   15   40 1
  29   16   17 ar
  30   16   19 1
  31   17   18 ar
  32   17   41 1
  33   18   42 1
  34   19   23 ar
  35   19   27 ar
  36   20   21 1
  37   20   22 2
  38   21   43 1
  39   23   24 ar
  40   23   44 1
  41   24   25 ar
  42   25   26 ar
  43   25   28 1
  44   26   27 ar
  45   26   45 1
  46   27   46 1
  47   28   29 1
  48   28   47 1
  49   29   31 1
  50   29   48 1
  51   29   49 1
  52   31   32 1
  53   31   50 1
  54   31   51 1
  55   32   52 1

#	End of record

