#	Name: ASD01912102
#	Creating user name:	WinNT
#	Creation time:	15. 06. 2019 19:59

#	Modifying user name:	WinNT
#	Modification time:	15. 06. 2019 19:59

#	Program:	/corina/corina34_cracker 3.40 0067  02.08.2006

@<TRIPOS>MOLECULE
ASD01912102
  52   56    0    0    0
SMALL
NO_CHARGES


@<TRIPOS>ATOM
   1 N1             0.0114     1.3381    -0.2133 N.2     
   2 C2            -0.0022     0.0067    -0.0867 C.2     
   3 N3             1.2215    -0.4120     0.1555 N.2     
   4 N4             2.0447     0.7253     0.1812 N.pl3   
   5 C5             1.2386     1.7865    -0.0543 C.2     
   6 C6             1.6627     3.2027    -0.1219 C.ar    
   7 C7             3.0006     3.5229    -0.3532 C.ar    
   8 C8             3.3898     4.8452    -0.4150 C.ar    
   9 C9             2.4563     5.8525    -0.2481 C.ar    
  10 C10            1.1280     5.5414    -0.0184 C.ar    
  11 C11            0.7253     4.2230     0.0399 C.ar    
  12 C12           -1.2027    -0.8580    -0.2005 C.ar    
  13 C13           -2.4491    -0.2914    -0.4608 C.ar    
  14 C14           -3.5631    -1.0976    -0.5660 C.ar    
  15 C15           -3.4439    -2.4722    -0.4124 C.ar    
  16 C16           -2.2036    -3.0394    -0.1530 C.ar    
  17 C17           -1.0851    -2.2389    -0.0530 C.ar    
  18 C18            3.4902     0.7569     0.4171 C.3     
  19 C19            4.2167     0.5790    -0.8912 C.2     
  20 N20            5.5642     0.5749    -0.9185 N.am    
  21 O21            3.5889     0.4396    -1.9194 O.2     
  22 C22            6.4222     0.4144    -2.0988 C.3     
  23 C23            7.8533     0.4786    -1.6291 C.2     
  24 C24            7.8798     0.6593    -0.3021 C.2     
  25 C25            6.4704     0.7364     0.2251 C.3     
  26 N26            9.1291     0.4197    -2.0587 N.2     
  27 C27            9.9209     0.5590    -1.0344 C.2     
  28 O28            9.1760     0.7094     0.0685 O.3     
  29 C29           11.4271     0.5513    -1.0820 C.3     
  30 O30           -4.5433    -3.2639    -0.5157 O.3     
  31 C31           -4.3488    -4.6695    -0.3467 C.3     
  32 F32           -3.4565    -5.1368    -1.3176 F       
  33 F33           -3.8249    -4.9180     0.9264 F       
  34 H34            3.7303     2.7374    -0.4832 H       
  35 H35            4.4253     5.0944    -0.5936 H       
  36 H36            2.7658     6.8860    -0.2970 H       
  37 H37            0.4039     6.3323     0.1111 H       
  38 H38           -0.3120     3.9814     0.2189 H       
  39 H39           -2.5426     0.7779    -0.5797 H       
  40 H40           -4.5293    -0.6591    -0.7677 H       
  41 H41           -2.1139    -4.1090    -0.0337 H       
  42 H42           -0.1205    -2.6807     0.1488 H       
  43 H43            3.7655     1.7149     0.8583 H       
  44 H44            3.7649    -0.0489     1.0978 H       
  45 H45            6.2295    -0.5504    -2.5680 H       
  46 H46            6.2291     1.2184    -2.8089 H       
  47 H47            6.3057     1.7028     0.7015 H       
  48 H48            6.2990    -0.0661     0.9425 H       
  49 H49           11.7911     1.5676    -1.2325 H       
  50 H50           11.8183     0.1606    -0.1426 H       
  51 H51           11.7614    -0.0800    -1.9053 H       
  52 H52           -5.3039    -5.1838    -0.4533 H       
@<TRIPOS>BOND
   1    1    2 1
   2    1    5 2
   3    2    3 2
   4    2   12 1
   5    3    4 1
   6    4    5 1
   7    4   18 1
   8    5    6 1
   9    6    7 ar
  10    6   11 ar
  11    7    8 ar
  12    7   34 1
  13    8    9 ar
  14    8   35 1
  15    9   10 ar
  16    9   36 1
  17   10   11 ar
  18   10   37 1
  19   11   38 1
  20   12   13 ar
  21   12   17 ar
  22   13   14 ar
  23   13   39 1
  24   14   15 ar
  25   14   40 1
  26   15   16 ar
  27   15   30 1
  28   16   17 ar
  29   16   41 1
  30   17   42 1
  31   18   19 1
  32   18   43 1
  33   18   44 1
  34   19   20 am
  35   19   21 2
  36   20   22 1
  37   20   25 1
  38   22   23 1
  39   22   45 1
  40   22   46 1
  41   23   24 2
  42   23   26 1
  43   24   25 1
  44   24   28 1
  45   25   47 1
  46   25   48 1
  47   26   27 2
  48   27   28 1
  49   27   29 1
  50   29   49 1
  51   29   50 1
  52   29   51 1
  53   30   31 1
  54   31   32 1
  55   31   33 1
  56   31   52 1

#	End of record

