#	Name: ASD03091152
#	Creating user name:	WinNT
#	Creation time:	15. 06. 2019 20:30

#	Modifying user name:	WinNT
#	Modification time:	15. 06. 2019 20:30

#	Program:	/corina/corina34_cracker 3.40 0067  02.08.2006

@<TRIPOS>MOLECULE
ASD03091152
  38   40    0    0    0
SMALL
NO_CHARGES


@<TRIPOS>ATOM
   1 C1            -0.0416     1.4295    -0.5241 C.2     
   2 C2            -0.0092    -0.0272    -0.2553 C.ar    
   3 C3             1.2074    -0.7056    -0.1180 C.ar    
   4 C4             1.1964    -2.0626     0.1320 C.ar    
   5 N5             0.0605    -2.7238     0.2424 N.ar    
   6 C6            -1.1132    -2.1246     0.1202 C.ar    
   7 C7            -1.1909    -0.7581    -0.1265 C.ar    
   8 O8             0.5269     1.8802    -1.4989 O.2     
   9 N9            -0.7062     2.2540     0.3095 N.am    
  10 N10            2.4898     0.0235    -0.2399 N.pl3   
  11 O11            3.5411    -0.5914    -0.2522 O.2     
  12 O12            2.4937     1.2383    -0.3279 O.2     
  13 N13           -4.3698    -4.8107    -0.5518 N.3     
  14 C14           -4.4957    -3.3610    -0.7657 C.3     
  15 C15           -3.1267    -2.7237    -0.9461 C.3     
  16 N16           -2.2812    -2.8684     0.2450 N.3     
  17 C17           -1.9795    -4.2844     0.4971 C.3     
  18 C18           -2.9760    -4.8716     1.4854 C.3     
  19 C19           -4.3487    -5.1064     0.8879 C.3     
  20 C20           -3.3101    -5.4758    -1.2792 C.3     
  21 C21           -1.9307    -5.0262    -0.8261 C.3     
  22 H22            2.1320    -2.5914     0.2385 H       
  23 H23           -2.1503    -0.2712    -0.2209 H       
  24 H24           -1.1634     1.8938     1.0855 H       
  25 H25           -0.7274     3.2077     0.1335 H       
  26 H26           -5.0961    -3.1803    -1.6573 H       
  27 H27           -4.9898    -2.9124     0.0961 H       
  28 H28           -2.6271    -3.1942    -1.7929 H       
  29 H29           -3.2566    -1.6628    -1.1601 H       
  30 H30           -0.9864    -4.3433     0.9424 H       
  31 H31           -2.5869    -5.8219     1.8511 H       
  32 H32           -3.0744    -4.1892     2.3297 H       
  33 H33           -5.0712    -4.4656     1.3934 H       
  34 H34           -4.6302    -6.1481     1.0415 H       
  35 H35           -3.3986    -6.5516    -1.1279 H       
  36 H36           -3.4210    -5.2596    -2.3417 H       
  37 H37           -1.5051    -4.3696    -1.5849 H       
  38 H38           -1.2905    -5.9018    -0.7179 H       
@<TRIPOS>BOND
   1    1    2 1
   2    1    8 2
   3    1    9 am
   4    2    3 ar
   5    2    7 ar
   6    3    4 ar
   7    3   10 1
   8    4    5 ar
   9    4   22 1
  10    5    6 ar
  11    6    7 ar
  12    6   16 1
  13    7   23 1
  14    9   24 1
  15    9   25 1
  16   10   11 2
  17   10   12 2
  18   13   14 1
  19   13   19 1
  20   13   20 1
  21   14   15 1
  22   14   26 1
  23   14   27 1
  24   15   16 1
  25   15   28 1
  26   15   29 1
  27   16   17 1
  28   17   18 1
  29   17   21 1
  30   17   30 1
  31   18   19 1
  32   18   31 1
  33   18   32 1
  34   19   33 1
  35   19   34 1
  36   20   21 1
  37   20   35 1
  38   20   36 1
  39   21   37 1
  40   21   38 1

#	End of record

