#	Name: ASD01900048
#	Creating user name:	WinNT
#	Creation time:	15. 06. 2019 19:51

#	Modifying user name:	WinNT
#	Modification time:	15. 06. 2019 19:51

#	Program:	/corina/corina34_cracker 3.40 0067  02.08.2006

@<TRIPOS>MOLECULE
ASD01900048
  35   36    0    0    0
SMALL
NO_CHARGES


@<TRIPOS>ATOM
   1 C1            -0.0122     1.2409     0.2215 C.2     
   2 O2            -0.0015     0.0434     0.4142 O.2     
   3 N3             1.1435     1.8984     0.0013 N.am    
   4 C4             2.3633     1.2187     0.0917 C.ar    
   5 C5             2.4550    -0.1035    -0.3224 C.ar    
   6 C6             3.6613    -0.7726    -0.2325 C.ar    
   7 C7             4.7768    -0.1259     0.2699 C.ar    
   8 C8             4.6880     1.1918     0.6832 C.ar    
   9 C9             3.4855     1.8671     0.5901 C.ar    
  10 Cl10           6.0898     1.9994     1.3129 Cl      
  11 Cl11           3.7768    -2.4256    -0.7499 Cl      
  12 C12           -1.3184     1.9925     0.2221 C.3     
  13 C13           -2.4675     1.0178     0.4872 C.3     
  14 C14           -2.2642     0.3475     1.8475 C.3     
  15 C15           -2.2379     1.4151     2.9432 C.3     
  16 C16           -1.0887     2.3898     2.6780 C.3     
  17 C17           -1.2920     3.0600     1.3178 C.3     
  18 C18           -3.3961    -0.6125     2.1086 C.2     
  19 O19           -3.4276    -1.3184     3.2499 O.3     
  20 O20           -4.2752    -0.7469     1.2907 O.2     
  21 H21            1.1297     2.8427    -0.2197 H       
  22 H22            1.5845    -0.6089    -0.7139 H       
  23 H23            5.7182    -0.6506     0.3399 H       
  24 H24            3.4168     2.8956     0.9125 H       
  25 H25           -1.4632     2.4700    -0.7470 H       
  26 H26           -3.4123     1.5614     0.4876 H       
  27 H27           -2.4863     0.2572    -0.2934 H       
  28 H28           -1.3195    -0.1961     1.8471 H       
  29 H29           -3.1826     1.9587     2.9436 H       
  30 H30           -2.0930     0.9376     3.9123 H       
  31 H31           -1.0699     3.1503     3.4586 H       
  32 H32           -0.1439     1.8461     2.6776 H       
  33 H33           -0.4734     3.7544     1.1289 H       
  34 H34           -2.2368     3.6036     1.3182 H       
  35 H35           -4.1735    -1.9215     3.3726 H       
@<TRIPOS>BOND
   1    1    2 2
   2    1    3 am
   3    1   12 1
   4    3    4 1
   5    3   21 1
   6    4    5 ar
   7    4    9 ar
   8    5    6 ar
   9    5   22 1
  10    6    7 ar
  11    6   11 1
  12    7    8 ar
  13    7   23 1
  14    8    9 ar
  15    8   10 1
  16    9   24 1
  17   12   13 1
  18   12   17 1
  19   12   25 1
  20   13   14 1
  21   13   26 1
  22   13   27 1
  23   14   15 1
  24   14   18 1
  25   14   28 1
  26   15   16 1
  27   15   29 1
  28   15   30 1
  29   16   17 1
  30   16   31 1
  31   16   32 1
  32   17   33 1
  33   17   34 1
  34   18   19 1
  35   18   20 2
  36   19   35 1

#	End of record

