#	Name: ASD00360010
#	Creating user name:	WinNT
#	Creation time:	15. 06. 2019 18:35

#	Modifying user name:	WinNT
#	Modification time:	15. 06. 2019 18:35

#	Program:	/corina/corina34_cracker 3.40 0067  02.08.2006

@<TRIPOS>MOLECULE
ASD00360010
  30   32    0    0    0
SMALL
NO_CHARGES


@<TRIPOS>ATOM
   1 C1            -0.0168     1.3859     0.0097 C.ar    
   2 C2             0.0021    -0.0041     0.0020 C.ar    
   3 C3             1.2077    -0.6880    -0.0133 C.ar    
   4 C4             2.4138     0.0083    -0.0208 C.ar    
   5 C5             2.4119     1.3964    -0.0129 C.ar    
   6 C6             1.1881     2.0959     0.0020 C.ar    
   7 C7             1.1890     3.5694     0.0108 C.2     
   8 C8             3.6847     2.1499    -0.0177 C.2     
   9 C9             3.6671     3.5946     0.2981 C.ar    
  10 C10            2.4420     4.2892     0.3116 C.ar    
  11 C11            2.4245     5.6530     0.6104 C.ar    
  12 C12            4.8471     4.2713     0.5822 C.ar    
  13 C13            4.8149     5.6256     0.8762 C.ar    
  14 C14            3.6188     6.3117     0.8922 C.ar    
  15 O15            1.2128    -2.0453    -0.0207 O.3     
  16 O16            4.7311     1.5892    -0.2773 O.2     
  17 O17            0.1680     4.1860    -0.2276 O.2     
  18 O18            1.2512     6.3325     0.6257 O.3     
  19 O19           -1.1986     2.0506     0.0189 O.3     
  20 C20            6.0979     6.3540     1.1835 C.3     
  21 I21           -1.8010    -1.0708     0.0145 I       
  22 H22            3.3494    -0.5311    -0.0324 H       
  23 H23            5.7886     3.7423     0.5742 H       
  24 H24            3.6083     7.3666     1.1236 H       
  25 H25            1.2057    -2.4339    -0.9061 H       
  26 H26            0.8125     6.3405     1.4875 H       
  27 H27           -1.5373     2.2387     0.9049 H       
  28 H28            6.5216     6.7489     0.2601 H       
  29 H29            5.8938     7.1756     1.8701 H       
  30 H30            6.8062     5.6644     1.6425 H       
@<TRIPOS>BOND
   1    1    2 ar
   2    1    6 ar
   3    1   19 1
   4    2    3 ar
   5    2   21 1
   6    3    4 ar
   7    3   15 1
   8    4    5 ar
   9    4   22 1
  10    5    6 ar
  11    5    8 1
  12    6    7 1
  13    7   10 1
  14    7   17 2
  15    8    9 1
  16    8   16 2
  17    9   12 ar
  18    9   10 ar
  19   10   11 ar
  20   11   14 ar
  21   11   18 1
  22   12   13 ar
  23   12   23 1
  24   13   14 ar
  25   13   20 1
  26   14   24 1
  27   15   25 1
  28   18   26 1
  29   19   27 1
  30   20   28 1
  31   20   29 1
  32   20   30 1

#	End of record

