#	Name: ASD06610047
#	Creating user name:	WinNT
#	Creation time:	15. 06. 2019 21:07

#	Modifying user name:	WinNT
#	Modification time:	15. 06. 2019 21:07

#	Program:	/corina/corina34_cracker 3.40 0067  02.08.2006

@<TRIPOS>MOLECULE
ASD06610047
 259  259    0    0    0
SMALL
NO_CHARGES


@<TRIPOS>ATOM
   1 C1            -3.6265     2.8148     9.0639 C.2     
   2 O2            -3.6341     1.6181     9.2605 O.2     
   3 N3            -1.3365     2.7303     9.8627 N.am    
   4 C4            -2.3854     3.6184     9.3555 C.3     
   5 C5            -1.9031     4.2959     8.0712 C.3     
   6 O6            -1.7175     3.3101     7.0534 O.3     
   7 C7            -6.7506     3.3518     7.2433 C.2     
   8 O8            -6.3666     4.4065     6.7838 O.2     
   9 N9            -4.7262     3.4251     8.5795 N.am    
  10 C10           -5.9307     2.6429     8.2904 C.3     
  11 C11           -6.7579     2.4893     9.5682 C.3     
  12 C12           -5.9728     1.6615    10.5876 C.3     
  13 C13           -6.8000     1.5078    11.8655 C.3     
  14 N14           -6.0482     0.7152    12.8416 N.pl3   
  15 C15           -6.5943     0.4442    14.0738 C.2     
  16 N16           -7.7809     0.8925    14.3737 N.2     
  17 N17           -5.8888    -0.2996    14.9898 N.pl3   
  18 C18          -10.1516     3.0910     5.9287 C.2     
  19 O19          -10.4823     2.2999     6.7864 O.2     
  20 N20           -7.9106     2.8136     6.8175 N.am    
  21 C21           -8.7077     3.5027     5.7996 C.3     
  22 C22           -8.1928     3.1277     4.4085 C.3     
  23 C23           -6.7677     3.6559     4.2326 C.3     
  24 C24           -6.2606     3.2865     2.8625 C.2     
  25 O25           -6.9665     2.6646     2.1044 O.2     
  26 O26           -5.0246     3.6484     2.4842 O.3     
  27 C27          -13.1721     3.3777     3.8897 C.2     
  28 O28          -12.5544     3.7961     2.9336 O.2     
  29 N29          -11.0755     3.6020     5.0909 N.am    
  30 C30          -12.4792     3.2018     5.2163 C.3     
  31 C31          -13.1657     4.0733     6.2699 C.3     
  32 C32          -12.5433     3.8016     7.6409 C.3     
  33 C33          -13.2299     4.6731     8.6945 C.3     
  34 C34          -12.6074     4.4014    10.0655 C.3     
  35 N35          -13.2666     5.2381    11.0771 N.3     
  36 C36          -16.6292     3.4356     2.7030 C.2     
  37 O37          -17.0752     3.4319     3.8308 O.2     
  38 N38          -14.4784     3.0700     3.7658 N.am    
  39 C39          -15.1521     3.2410     2.4762 C.3     
  40 C40          -14.9280     1.9966     1.6148 C.3     
  41 C41          -13.4405     1.8687     1.2805 C.3     
  42 C42          -13.2164     0.6243     0.4191 C.3     
  43 N43          -11.7920     0.5019     0.0991 N.pl3   
  44 C44          -11.3480    -0.5475    -0.6701 C.2     
  45 N45          -12.1943    -1.4335    -1.1147 N.2     
  46 N46          -10.0113    -0.6623    -0.9705 N.pl3   
  47 C47          -19.6482     3.3750     0.6426 C.2     
  48 O48          -19.0480     2.9534    -0.3232 O.2     
  49 N49          -17.4545     3.6139     1.6525 N.am    
  50 C50          -18.8904     3.8031     1.8729 C.3     
  51 C51          -19.1725     5.2797     2.1576 C.3     
  52 C52          -18.5044     5.6820     3.4739 C.3     
  53 C53          -18.7864     7.1586     3.7586 C.3     
  54 N54          -18.1468     7.5438     5.0190 N.pl3   
  55 C55          -18.2632     8.8326     5.4832 C.2     
  56 N56          -17.6941     9.1753     6.6046 N.2     
  57 N57          -18.9800     9.7600     4.7646 N.pl3   
  58 C58          -23.0521     3.7654    -0.6319 C.2     
  59 O59          -23.3499     4.5496     0.2441 O.2     
  60 N60          -20.9930     3.4608     0.6157 N.am    
  61 C61          -21.7297     3.0446    -0.5803 C.3     
  62 C62          -21.9733     1.5350    -0.5296 C.3     
  63 O63          -22.8330     1.2279     0.5698 O.3     
  64 C64          -26.1724     3.4287    -2.5063 C.2     
  65 O65          -25.8326     2.3699    -2.9902 O.2     
  66 N66          -23.9038     3.5387    -1.6515 N.am    
  67 C67          -25.1894     4.2395    -1.7016 C.3     
  68 C68          -24.9989     5.6082    -2.3583 C.3     
  69 C69          -28.2001     3.6397    -4.9766 C.2     
  70 O70          -27.4005     4.5149    -5.2328 O.2     
  71 N71          -27.4291     3.8804    -2.6882 N.am    
  72 C72          -28.3515     3.1486    -3.5599 C.3     
  73 C73          -29.7891     3.3806    -3.0906 C.3     
  74 C74          -29.9803     2.7590    -1.7311 C.2     
  75 O75          -29.0410     2.2605    -1.1573 O.2     
  76 O76          -31.1939     2.7591    -1.1577 O.3     
  77 C77          -30.2551     3.6067    -7.9448 C.2     
  78 O78          -31.1918     3.1494    -7.3248 O.2     
  79 N79          -28.9534     3.1065    -5.9588 N.am    
  80 C80          -28.8874     3.6585    -7.3142 C.3     
  81 C81          -27.9076     2.8355    -8.1529 C.3     
  82 C82          -28.2932     1.3566    -8.0825 C.3     
  83 C83          -29.6287     1.1431    -8.7979 C.3     
  84 C84          -26.4899     3.0194    -7.6076 C.3     
  85 C85          -31.6986     4.0707   -11.2711 C.2     
  86 O86          -30.6167     3.9886   -11.8131 O.2     
  87 N87          -30.4374     4.0685    -9.1978 N.am    
  88 C88          -31.7857     4.1277    -9.7677 C.3     
  89 C89          -32.4610     5.4340    -9.3452 C.3     
  90 C90          -32.6592     5.4368    -7.8513 C.ar    
  91 C91          -31.6760     5.9475    -7.0246 C.ar    
  92 C92          -31.8577     5.9500    -5.6542 C.ar    
  93 C93          -33.0228     5.4421    -5.1106 C.ar    
  94 C94          -34.0064     4.9322    -5.9374 C.ar    
  95 C95          -33.8265     4.9337    -7.3080 C.ar    
  96 C96          -32.5030     5.4416   -14.0173 C.2     
  97 O97          -32.4151     6.3796   -13.2608 O.2     
  98 N98          -32.8228     4.1109   -12.0133 N.am    
  99 C99          -32.7381     4.0554   -13.4748 C.3     
 100 C100         -34.0472     3.5015   -14.0409 C.3     
 101 C101         -33.9144     3.3264   -15.5550 C.3     
 102 C102         -35.1762     2.6572   -16.1036 C.3     
 103 C103         -35.1867     4.4765   -13.7382 C.3     
 104 O104         -32.3911     5.6342   -15.3410 O.3     
 105 C105          -0.3558     3.2236    10.6446 C.2     
 106 O106          -0.3416     4.4027    10.9283 O.2     
 107 C107          15.2577     1.4544    20.8562 C.3     
 108 C108          14.1623     2.3820    20.3265 C.3     
 109 C109          13.1814     1.5767    19.4720 C.3     
 110 C110          12.0859     2.5042    18.9422 C.3     
 111 C111          11.1050     1.6989    18.0877 C.3     
 112 C112          10.0096     2.6264    17.5579 C.3     
 113 C113           9.0286     1.8211    16.7034 C.3     
 114 C114           7.9332     2.7486    16.1737 C.3     
 115 C115           6.9523     1.9433    15.3192 C.3     
 116 C116           5.8568     2.8709    14.7894 C.3     
 117 C117           4.8759     2.0656    13.9349 C.3     
 118 C118           3.7805     2.9931    13.4052 C.3     
 119 C119           2.7995     2.1878    12.5506 C.3     
 120 C120           1.7041     3.1153    12.0209 C.3     
 121 C121           0.7232     2.3100    11.1664 C.3     
 122 H122          -1.3479     1.7873     9.6358 H       
 123 H123          -2.6118     4.3779    10.1039 H       
 124 H124          -2.6463     5.0222     7.7424 H       
 125 H125          -0.9578     4.8041     8.2615 H       
 126 H126          -1.4116     3.6691     6.2093 H       
 127 H127          -4.7201     4.3823     8.4223 H       
 128 H128          -5.6444     1.6577     7.9222 H       
 129 H129          -6.9689     3.4741     9.9851 H       
 130 H130          -7.6957     1.9848     9.3355 H       
 131 H131          -5.7618     0.6767    10.1707 H       
 132 H132          -5.0350     2.1660    10.8203 H       
 133 H133          -7.0110     2.4926    12.2823 H       
 134 H134          -7.7378     1.0033    11.6327 H       
 135 H135          -5.1652     0.3816    12.6184 H       
 136 H136          -8.1662     0.7013    15.2431 H       
 137 H137          -5.0057    -0.6332    14.7667 H       
 138 H138          -6.2741    -0.4908    15.8593 H       
 139 H139          -8.2177     1.9701     7.1850 H       
 140 H140          -8.6232     4.5803     5.9400 H       
 141 H141          -8.1941     2.0430     4.3008 H       
 142 H142          -8.8400     3.5689     3.6505 H       
 143 H143          -6.7664     4.7406     4.3404 H       
 144 H144          -6.1205     3.2147     4.9907 H       
 145 H145          -4.7436     3.3888     1.5961 H       
 146 H146         -10.8110     4.2347     4.4049 H       
 147 H147         -12.5332     2.1559     5.5186 H       
 148 H148         -13.0348     5.1245     6.0133 H       
 149 H149         -14.2293     3.8365     6.3004 H       
 150 H150         -12.6743     2.7503     7.8975 H       
 151 H151         -11.4798     4.0384     7.6105 H       
 152 H152         -13.0989     5.7243     8.4379 H       
 153 H153         -14.2934     4.4363     8.7249 H       
 154 H154         -12.7384     3.3501    10.3221 H       
 155 H155         -11.5439     4.6382    10.0350 H       
 156 H156         -14.2638     5.0837    11.0801 H       
 157 H157         -12.8730     5.0769    11.9920 H       
 158 H158         -14.9726     2.7353     4.5305 H       
 159 H159         -14.7447     4.1140     1.9664 H       
 160 H160         -15.2548     1.1123     2.1619 H       
 161 H161         -15.5014     2.0853     0.6920 H       
 162 H162         -13.1137     2.7530     0.7334 H       
 163 H163         -12.8671     1.7800     2.2033 H       
 164 H164         -13.5431    -0.2600     0.9663 H       
 165 H165         -13.7898     0.7131    -0.5036 H       
 166 H166         -11.1622     1.1613     0.4299 H       
 167 H167         -11.8810    -2.1739    -1.6574 H       
 168 H168          -9.3815    -0.0029    -0.6396 H       
 169 H169          -9.6980    -1.4027    -1.5132 H       
 170 H170         -17.0978     3.6169     0.7504 H       
 171 H171         -19.2097     3.2016     2.7240 H       
 172 H172         -18.7733     5.8888     1.3465 H       
 173 H173         -20.2485     5.4360     2.2336 H       
 174 H174         -18.9036     5.0729     4.2849 H       
 175 H175         -17.4283     5.5257     3.3979 H       
 176 H176         -18.3873     7.7677     2.9475 H       
 177 H177         -19.8625     7.3149     3.8346 H       
 178 H178         -17.6411     6.8895     5.5260 H       
 179 H179         -17.7762    10.0847     6.9321 H       
 180 H180         -19.4035     9.5049     3.9300 H       
 181 H181         -19.0621    10.6693     5.0921 H       
 182 H182         -21.4731     3.7980     1.3881 H       
 183 H183         -21.1477     3.2891    -1.4689 H       
 184 H184         -22.4422     1.2112    -1.4589 H       
 185 H185         -21.0224     1.0175    -0.4029 H       
 186 H186         -23.0309     0.2860     0.6631 H       
 187 H187         -23.6657     2.9116    -2.3521 H       
 188 H188         -25.5706     4.3722    -0.6891 H       
 189 H189         -25.9554     6.1296    -2.3956 H       
 190 H190         -24.2879     6.1946    -1.7763 H       
 191 H191         -24.6176     5.4755    -3.3708 H       
 192 H192         -27.7229     4.6900    -2.2419 H       
 193 H193         -28.1231     2.0836    -3.5182 H       
 194 H194         -29.9836     4.4515    -3.0310 H       
 195 H195         -30.4807     2.9246    -3.7990 H       
 196 H196         -31.2672     2.3487    -0.2852 H       
 197 H197         -29.5391     2.3572    -5.7682 H       
 198 H198         -28.5471     4.6930    -7.2690 H       
 199 H199         -27.9448     3.1718    -9.1891 H       
 200 H200         -27.5221     0.7566    -8.5659 H       
 201 H201         -28.3875     1.0549    -7.0393 H       
 202 H202         -29.7818     0.0779    -8.9713 H       
 203 H203         -30.4382     1.5305    -8.1793 H       
 204 H204         -29.6175     1.6688    -9.7527 H       
 205 H205         -26.4643     2.7301    -6.5570 H       
 206 H206         -25.7990     2.3946    -8.1735 H       
 207 H207         -26.1964     4.0648    -7.7038 H       
 208 H208         -29.6759     4.3616    -9.7222 H       
 209 H209         -32.3708     3.2825    -9.4053 H       
 210 H210         -31.8314     6.2771    -9.6297 H       
 211 H211         -33.4284     5.5196    -9.8402 H       
 212 H212         -30.7657     6.3442    -7.4493 H       
 213 H213         -31.0893     6.3483    -5.0083 H       
 214 H214         -33.1645     5.4434    -4.0400 H       
 215 H215         -34.9165     4.5352    -5.5126 H       
 216 H216         -34.5965     4.5387    -7.9541 H       
 217 H217         -33.6881     4.1765   -11.5798 H       
 218 H218         -31.9126     3.4062   -13.7665 H       
 219 H219         -34.2625     2.5370   -13.5811 H       
 220 H220         -33.7875     4.3022   -16.0238 H       
 221 H221         -33.0478     2.7026   -15.7740 H       
 222 H222         -35.3030     1.6814   -15.6348 H       
 223 H223         -36.0428     3.2809   -15.8846 H       
 224 H224         -35.0816     2.5325   -17.1823 H       
 225 H225         -34.9714     5.4411   -14.1980 H       
 226 H226         -36.1193     4.0819   -14.1415 H       
 227 H227         -35.2813     4.6013   -12.6595 H       
 228 H228         -32.2407     6.5409   -15.6415 H       
 229 H229          15.7901     1.0051    20.0179 H       
 230 H230          15.9565     2.0281    21.4650 H       
 231 H231          14.8069     0.6693    21.4631 H       
 232 H232          13.6298     2.8313    21.1648 H       
 233 H233          14.6131     3.1671    19.7196 H       
 234 H234          13.7138     1.1274    18.6337 H       
 235 H235          12.7305     0.7915    20.0789 H       
 236 H236          11.5535     2.9535    19.7805 H       
 237 H237          12.5368     3.2893    18.3353 H       
 238 H238          11.6374     1.2496    17.2494 H       
 239 H239          10.6542     0.9137    18.6946 H       
 240 H240           9.4771     3.0757    18.3962 H       
 241 H241          10.4604     3.4116    16.9510 H       
 242 H242           9.5611     1.3718    15.8651 H       
 243 H243           8.5778     1.0359    17.3104 H       
 244 H244           7.4008     3.1979    17.0120 H       
 245 H245           8.3840     3.5338    15.5668 H       
 246 H246           7.4847     1.4940    14.4809 H       
 247 H247           6.5014     1.1582    15.9261 H       
 248 H248           5.3244     3.3202    15.6277 H       
 249 H249           6.3077     3.6560    14.1825 H       
 250 H250           5.4083     1.6162    13.0966 H       
 251 H251           4.4251     1.2804    14.5418 H       
 252 H252           3.2480     3.4424    14.2435 H       
 253 H253           4.2313     3.7782    12.7982 H       
 254 H254           3.3320     1.7385    11.7123 H       
 255 H255           2.3487     1.4026    13.1576 H       
 256 H256           1.1717     3.5646    12.8592 H       
 257 H257           2.1549     3.9005    11.4140 H       
 258 H258           0.2723     1.5248    11.7733 H       
 259 H259           1.2556     1.8607    10.3281 H       
@<TRIPOS>BOND
   1    1    2 2
   2    1    4 1
   3    1    9 am
   4    3  105 am
   5    3    4 1
   6    3  122 1
   7    4    5 1
   8    4  123 1
   9    5    6 1
  10    5  124 1
  11    5  125 1
  12    6  126 1
  13    7    8 2
  14    7   10 1
  15    7   20 am
  16    9   10 1
  17    9  127 1
  18   10   11 1
  19   10  128 1
  20   11   12 1
  21   11  129 1
  22   11  130 1
  23   12   13 1
  24   12  131 1
  25   12  132 1
  26   13   14 1
  27   13  133 1
  28   13  134 1
  29   14   15 1
  30   14  135 1
  31   15   16 2
  32   15   17 1
  33   16  136 1
  34   17  137 1
  35   17  138 1
  36   18   19 2
  37   18   21 1
  38   18   29 am
  39   20   21 1
  40   20  139 1
  41   21   22 1
  42   21  140 1
  43   22   23 1
  44   22  141 1
  45   22  142 1
  46   23   24 1
  47   23  143 1
  48   23  144 1
  49   24   25 2
  50   24   26 1
  51   26  145 1
  52   27   28 2
  53   27   30 1
  54   27   38 am
  55   29   30 1
  56   29  146 1
  57   30   31 1
  58   30  147 1
  59   31   32 1
  60   31  148 1
  61   31  149 1
  62   32   33 1
  63   32  150 1
  64   32  151 1
  65   33   34 1
  66   33  152 1
  67   33  153 1
  68   34   35 1
  69   34  154 1
  70   34  155 1
  71   35  156 1
  72   35  157 1
  73   36   37 2
  74   36   39 1
  75   36   49 am
  76   38   39 1
  77   38  158 1
  78   39   40 1
  79   39  159 1
  80   40   41 1
  81   40  160 1
  82   40  161 1
  83   41   42 1
  84   41  162 1
  85   41  163 1
  86   42   43 1
  87   42  164 1
  88   42  165 1
  89   43   44 1
  90   43  166 1
  91   44   45 2
  92   44   46 1
  93   45  167 1
  94   46  168 1
  95   46  169 1
  96   47   48 2
  97   47   50 1
  98   47   60 am
  99   49   50 1
 100   49  170 1
 101   50   51 1
 102   50  171 1
 103   51   52 1
 104   51  172 1
 105   51  173 1
 106   52   53 1
 107   52  174 1
 108   52  175 1
 109   53   54 1
 110   53  176 1
 111   53  177 1
 112   54   55 1
 113   54  178 1
 114   55   56 2
 115   55   57 1
 116   56  179 1
 117   57  180 1
 118   57  181 1
 119   58   59 2
 120   58   61 1
 121   58   66 am
 122   60   61 1
 123   60  182 1
 124   61   62 1
 125   61  183 1
 126   62   63 1
 127   62  184 1
 128   62  185 1
 129   63  186 1
 130   64   65 2
 131   64   67 1
 132   64   71 am
 133   66   67 1
 134   66  187 1
 135   67   68 1
 136   67  188 1
 137   68  189 1
 138   68  190 1
 139   68  191 1
 140   69   70 2
 141   69   72 1
 142   69   79 am
 143   71   72 1
 144   71  192 1
 145   72   73 1
 146   72  193 1
 147   73   74 1
 148   73  194 1
 149   73  195 1
 150   74   75 2
 151   74   76 1
 152   76  196 1
 153   77   78 2
 154   77   80 1
 155   77   87 am
 156   79   80 1
 157   79  197 1
 158   80   81 1
 159   80  198 1
 160   81   82 1
 161   81   84 1
 162   81  199 1
 163   82   83 1
 164   82  200 1
 165   82  201 1
 166   83  202 1
 167   83  203 1
 168   83  204 1
 169   84  205 1
 170   84  206 1
 171   84  207 1
 172   85   86 2
 173   85   88 1
 174   85   98 am
 175   87   88 1
 176   87  208 1
 177   88   89 1
 178   88  209 1
 179   89   90 1
 180   89  210 1
 181   89  211 1
 182   90   91 ar
 183   90   95 ar
 184   91   92 ar
 185   91  212 1
 186   92   93 ar
 187   92  213 1
 188   93   94 ar
 189   93  214 1
 190   94   95 ar
 191   94  215 1
 192   95  216 1
 193   96   97 2
 194   96   99 1
 195   96  104 1
 196   98   99 1
 197   98  217 1
 198   99  100 1
 199   99  218 1
 200  100  101 1
 201  100  103 1
 202  100  219 1
 203  101  102 1
 204  101  220 1
 205  101  221 1
 206  102  222 1
 207  102  223 1
 208  102  224 1
 209  103  225 1
 210  103  226 1
 211  103  227 1
 212  104  228 1
 213  105  106 2
 214  105  121 1
 215  107  108 1
 216  107  229 1
 217  107  230 1
 218  107  231 1
 219  108  109 1
 220  108  232 1
 221  108  233 1
 222  109  110 1
 223  109  234 1
 224  109  235 1
 225  110  111 1
 226  110  236 1
 227  110  237 1
 228  111  112 1
 229  111  238 1
 230  111  239 1
 231  112  113 1
 232  112  240 1
 233  112  241 1
 234  113  114 1
 235  113  242 1
 236  113  243 1
 237  114  115 1
 238  114  244 1
 239  114  245 1
 240  115  116 1
 241  115  246 1
 242  115  247 1
 243  116  117 1
 244  116  248 1
 245  116  249 1
 246  117  118 1
 247  117  250 1
 248  117  251 1
 249  118  119 1
 250  118  252 1
 251  118  253 1
 252  119  120 1
 253  119  254 1
 254  119  255 1
 255  120  121 1
 256  120  256 1
 257  120  257 1
 258  121  258 1
 259  121  259 1

#	End of record

