#	Name: ASD01120313
#	Creating user name:	WinNT
#	Creation time:	15. 06. 2019 18:59

#	Modifying user name:	WinNT
#	Modification time:	15. 06. 2019 18:59

#	Program:	/corina/corina34_cracker 3.40 0067  02.08.2006

@<TRIPOS>MOLECULE
ASD01120313
  41   43    0    0    0
SMALL
NO_CHARGES


@<TRIPOS>ATOM
   1 C1            -0.0187     1.5258     0.0104 C.3     
   2 C2             0.0021    -0.0041     0.0020 C.3     
   3 O3            -1.3601    -0.5067     0.0123 O.3     
   4 C4            -1.5187    -1.8458     0.0066 C.2     
   5 O5            -0.5446    -2.5733    -0.0066 O.2     
   6 C6            -2.8678    -2.4255     0.0164 C.2     
   7 N7            -4.0487    -1.7081     0.0311 N.pl3   
   8 C8            -5.1024    -2.5918     0.0366 C.ar    
   9 C9            -4.5615    -3.8913     0.0250 C.ar    
  10 C10           -3.1559    -3.7554     0.0066 C.2     
  11 C11           -5.4269    -5.0063     0.0276 C.ar    
  12 C12           -6.7991    -4.8049     0.0415 C.ar    
  13 C13           -7.3178    -3.5193     0.0527 C.ar    
  14 C14           -6.4844    -2.4221     0.0504 C.ar    
  15 N15           -7.0601    -1.0584     0.0630 N.pl3   
  16 O16           -8.2686    -0.9076     0.0755 O.2     
  17 O17           -6.3252    -0.0870     0.0610 O.2     
  18 C18           -4.8741    -6.3807     0.0151 C.ar    
  19 C19           -3.9025    -6.7354    -0.9205 C.ar    
  20 C20           -3.3889    -8.0166    -0.9294 C.ar    
  21 C21           -3.8350    -8.9508    -0.0134 C.ar    
  22 C22           -4.8023    -8.6063     0.9212 C.ar    
  23 C23           -5.3192    -7.3219     0.9421 C.ar    
  24 O24           -5.2380    -9.5286     1.8194 O.3     
  25 C25           -4.6572   -10.8321     1.7443 C.3     
  26 H26            1.0039     1.9031     0.0027 H       
  27 H27           -0.5459     1.8868    -0.8726 H       
  28 H28           -0.5289     1.8773     0.9072 H       
  29 H29            0.5123    -0.3556    -0.8948 H       
  30 H30            0.5293    -0.3651     0.8851 H       
  31 H31           -4.1222    -0.7409     0.0368 H       
  32 H32           -2.4383    -4.5624    -0.0057 H       
  33 H33           -7.4668    -5.6537     0.0431 H       
  34 H34           -8.3882    -3.3761     0.0631 H       
  35 H35           -3.5524    -6.0080    -1.6379 H       
  36 H36           -2.6365    -8.2900    -1.6544 H       
  37 H37           -3.4300    -9.9519    -0.0250 H       
  38 H38           -6.0714    -7.0525     1.6688 H       
  39 H39           -5.0921   -11.4685     2.5149 H       
  40 H40           -4.8562   -11.2624     0.7628 H       
  41 H41           -3.5805   -10.7596     1.8978 H       
@<TRIPOS>BOND
   1    1    2 1
   2    1   26 1
   3    1   27 1
   4    1   28 1
   5    2    3 1
   6    2   29 1
   7    2   30 1
   8    3    4 1
   9    4    5 2
  10    4    6 1
  11    6    7 1
  12    6   10 2
  13    7    8 1
  14    7   31 1
  15    8    9 ar
  16    8   14 ar
  17    9   10 1
  18    9   11 ar
  19   10   32 1
  20   11   12 ar
  21   11   18 1
  22   12   13 ar
  23   12   33 1
  24   13   14 ar
  25   13   34 1
  26   14   15 1
  27   15   16 2
  28   15   17 2
  29   18   19 ar
  30   18   23 ar
  31   19   20 ar
  32   19   35 1
  33   20   21 ar
  34   20   36 1
  35   21   22 ar
  36   21   37 1
  37   22   23 ar
  38   22   24 1
  39   23   38 1
  40   24   25 1
  41   25   39 1
  42   25   40 1
  43   25   41 1

#	End of record

