#	Name: ASD03731174
#	Creating user name:	WinNT
#	Creation time:	15. 06. 2019 20:45

#	Modifying user name:	WinNT
#	Modification time:	15. 06. 2019 20:45

#	Program:	/corina/corina34_cracker 3.40 0067  02.08.2006

@<TRIPOS>MOLECULE
ASD03731174
  70   75    0    0    0
SMALL
NO_CHARGES


@<TRIPOS>ATOM
   1 N1            -0.0162     1.3436     0.0094 N.am    
   2 C2            -0.1345     0.0013     0.0383 C.2     
   3 O3             0.8567    -0.6983    -0.0419 O.2     
   4 N4            -1.3516    -0.5655     0.1561 N.am    
   5 C5            -1.4803    -2.0245     0.1874 C.3     
   6 C6            -2.9561    -2.4035     0.3260 C.3     
   7 O7             1.4996    -7.7452     2.1438 O.3     
   8 C8             1.8013    -9.1334     2.3785 C.3     
   9 O9             0.6122    -9.6395     3.0132 O.3     
  10 C10           -0.4063    -8.8467     2.5671 C.ar    
  11 C11            0.1400    -7.6816     2.0335 C.ar    
  12 C12           -1.7777    -9.0284     2.5722 C.ar    
  13 C13           -2.6202    -8.0524     2.0485 C.ar    
  14 C14           -2.0632    -6.8892     1.5258 C.ar    
  15 C15           -0.6960    -6.7078     1.5136 C.ar    
  16 O16           -3.9798    -8.0404     1.9416 O.3     
  17 C17           -3.2126    -6.0303     1.0707 C.3     
  18 C18           -4.4285    -6.6865     1.7388 C.3     
  19 N19           -3.0847    -3.8625     0.3574 N.am    
  20 C20           -3.0505    -4.5968     1.4873 C.2     
  21 C21           -3.3445    -5.9979    -0.4231 C.ar    
  22 C22           -3.5171    -6.9687    -1.3843 C.ar    
  23 C23           -3.6075    -6.6145    -2.7186 C.ar    
  24 C24           -3.5234    -5.2834    -3.0846 C.ar    
  25 C25           -3.3495    -4.3074    -2.1257 C.ar    
  26 C26           -3.2579    -4.6547    -0.7801 C.ar    
  27 O27           -2.9157    -4.1811     2.6187 O.2     
  28 C28            1.2545     1.9352     0.0099 C.ar    
  29 C29            1.4705     3.1264    -0.6797 C.ar    
  30 C30            2.7282     3.7066    -0.6758 C.ar    
  31 C31            3.7659     3.1038     0.0114 C.ar    
  32 C32            3.5522     1.9220     0.6958 C.ar    
  33 C33            2.2984     1.3396     0.7015 C.ar    
  34 O34            0.4493     3.7177    -1.3554 O.3     
  35 C35            0.7441     4.9371    -2.0396 C.3     
  36 C36            4.6874     1.2699     1.4423 C.3     
  37 C37            5.9541     2.1129     1.2821 C.3     
  38 C38            4.3286     1.1653     2.9259 C.3     
  39 C39            4.9318    -0.1306     0.8767 C.3     
  40 H40           -0.8103     1.9000    -0.0157 H       
  41 H41           -2.1424    -0.0074     0.2200 H       
  42 H42           -1.0826    -2.4443    -0.7366 H       
  43 H43           -0.9223    -2.4203     1.0360 H       
  44 H44           -3.3538    -1.9837     1.2500 H       
  45 H45           -3.5141    -2.0077    -0.5225 H       
  46 H46            1.9822    -9.6506     1.4362 H       
  47 H47            2.6608    -9.2316     3.0416 H       
  48 H48           -2.1973    -9.9336     2.9855 H       
  49 H49           -0.2763    -5.8037     1.0978 H       
  50 H50           -5.2945    -6.6607     1.0773 H       
  51 H51           -4.6530    -6.2063     2.6912 H       
  52 H52           -3.5824    -8.0076    -1.0962 H       
  53 H53           -3.7438    -7.3756    -3.4727 H       
  54 H54           -3.5938    -5.0069    -4.1263 H       
  55 H55           -3.2842    -3.2701    -2.4193 H       
  56 H56            2.8985     4.6297    -1.2099 H       
  57 H57            4.7461     3.5574     0.0130 H       
  58 H58            2.1331     0.4186     1.2407 H       
  59 H59           -0.1552     5.3019    -2.5359 H       
  60 H60            1.0907     5.6814    -1.3226 H       
  61 H61            1.5217     4.7582    -2.7822 H       
  62 H62            5.7799     3.1106     1.6850 H       
  63 H63            6.7751     1.6412     1.8220 H       
  64 H64            6.2097     2.1874     0.2251 H       
  65 H65            3.4262     0.5647     3.0401 H       
  66 H66            5.1496     0.6936     3.4659 H       
  67 H67            4.1545     2.1630     3.3288 H       
  68 H68            5.1874    -0.0560    -0.1803 H       
  69 H69            5.7528    -0.6023     1.4166 H       
  70 H70            4.0294    -0.7311     0.9908 H       
@<TRIPOS>BOND
   1    1    2 am
   2    1   28 1
   3    1   40 1
   4    2    3 2
   5    2    4 am
   6    4    5 1
   7    4   41 1
   8    5    6 1
   9    5   42 1
  10    5   43 1
  11    6   19 1
  12    6   44 1
  13    6   45 1
  14    7    8 1
  15    7   11 1
  16    8    9 1
  17    8   46 1
  18    8   47 1
  19    9   10 1
  20   10   11 ar
  21   10   12 ar
  22   11   15 ar
  23   12   13 ar
  24   12   48 1
  25   13   14 ar
  26   13   16 1
  27   14   15 ar
  28   14   17 1
  29   15   49 1
  30   16   18 1
  31   17   18 1
  32   17   20 1
  33   17   21 1
  34   18   50 1
  35   18   51 1
  36   19   20 am
  37   19   26 1
  38   20   27 2
  39   21   22 ar
  40   21   26 ar
  41   22   23 ar
  42   22   52 1
  43   23   24 ar
  44   23   53 1
  45   24   25 ar
  46   24   54 1
  47   25   26 ar
  48   25   55 1
  49   28   29 ar
  50   28   33 ar
  51   29   30 ar
  52   29   34 1
  53   30   31 ar
  54   30   56 1
  55   31   32 ar
  56   31   57 1
  57   32   33 ar
  58   32   36 1
  59   33   58 1
  60   34   35 1
  61   35   59 1
  62   35   60 1
  63   35   61 1
  64   36   37 1
  65   36   39 1
  66   36   38 1
  67   37   62 1
  68   37   63 1
  69   37   64 1
  70   38   65 1
  71   38   66 1
  72   38   67 1
  73   39   68 1
  74   39   69 1
  75   39   70 1

#	End of record

