#	Name: ASD01913178
#	Creating user name:	WinNT
#	Creation time:	15. 06. 2019 20:01

#	Modifying user name:	WinNT
#	Modification time:	15. 06. 2019 20:01

#	Program:	/corina/corina34_cracker 3.40 0067  02.08.2006

@<TRIPOS>MOLECULE
ASD01913178
  47   50    0    0    0
SMALL
NO_CHARGES


@<TRIPOS>ATOM
   1 N1            -0.6662     2.4325    -2.0367 N.ar    
   2 C2            -0.9055     1.2663    -2.5947 C.ar    
   3 C3             0.0960     0.3183    -2.7047 C.ar    
   4 C4             1.3550     0.6183    -2.2111 C.ar    
   5 C5             1.5671     1.8625    -1.6266 C.ar    
   6 C6             2.9393     2.1645    -1.0825 C.3     
   7 N7             3.0382     3.5919    -0.7582 N.am    
   8 C8             1.9018     4.2040    -0.0502 C.3     
   9 C9             0.6838     4.1405    -0.9702 C.3     
  10 C10            0.5278     2.7620    -1.5586 C.ar    
  11 C11            4.1256     4.3137    -1.0946 C.2     
  12 C12            5.3020     3.6447    -1.6847 C.ar    
  13 C13            6.0620     4.2977    -2.6542 C.ar    
  14 C14            7.1712     3.6615    -3.2071 C.ar    
  15 C15            7.5154     2.3672    -2.7835 C.ar    
  16 C16            6.7515     1.7269    -1.8184 C.ar    
  17 C17            5.6576     2.3582    -1.2672 C.ar    
  18 O18            4.1378     5.5156    -0.9120 O.2     
  19 C19            7.9572     4.3244    -4.2038 C.1     
  20 C20            8.6017     4.8678    -5.0209 C.1     
  21 C21            9.3877     5.5307    -6.0175 C.ar    
  22 C22           10.4991     4.8855    -6.5672 C.ar    
  23 C23           11.2474     5.5395    -7.5285 C.ar    
  24 C24           10.8637     6.8179    -7.9120 C.ar    
  25 C25            9.7530     7.3982    -7.3277 C.ar    
  26 N26            9.0520     6.7536    -6.4175 N.ar    
  27 O27            8.5941     1.7432    -3.3183 O.3     
  28 C28            8.8857     0.4282    -2.8410 C.3     
  29 Br29          -0.2476    -1.3562    -3.5134 Br      
  30 H30           -1.8937     1.0461    -2.9706 H       
  31 H31            2.1576    -0.1012    -2.2787 H       
  32 H32            3.1103     1.5751    -0.1817 H       
  33 H33            3.6903     1.9094    -1.8302 H       
  34 H34            1.6993     3.6524     0.8679 H       
  35 H35            2.1312     5.2430     0.1863 H       
  36 H36           -0.2105     4.3896    -0.3989 H       
  37 H37            0.8058     4.8633    -1.7770 H       
  38 H38            5.7916     5.2927    -2.9756 H       
  39 H39            7.0179     0.7317    -1.4946 H       
  40 H40            5.0702     1.8560    -0.5128 H       
  41 H41           10.7696     3.8906    -6.2455 H       
  42 H42           12.1116     5.0667    -7.9711 H       
  43 H43           11.4282     7.3545    -8.6602 H       
  44 H44            9.4533     8.3924    -7.6249 H       
  45 H45            8.0385    -0.2275    -3.0421 H       
  46 H46            9.7704     0.0450    -3.3494 H       
  47 H47            9.0705     0.4641    -1.7674 H       
@<TRIPOS>BOND
   1    1    2 ar
   2    1   10 ar
   3    2    3 ar
   4    2   30 1
   5    3    4 ar
   6    3   29 1
   7    4    5 ar
   8    4   31 1
   9    5    6 1
  10    5   10 ar
  11    6    7 1
  12    6   32 1
  13    6   33 1
  14    7    8 1
  15    7   11 am
  16    8    9 1
  17    8   34 1
  18    8   35 1
  19    9   10 1
  20    9   36 1
  21    9   37 1
  22   11   12 1
  23   11   18 2
  24   12   13 ar
  25   12   17 ar
  26   13   14 ar
  27   13   38 1
  28   14   15 ar
  29   14   19 1
  30   15   16 ar
  31   15   27 1
  32   16   17 ar
  33   16   39 1
  34   17   40 1
  35   19   20 3
  36   20   21 1
  37   21   22 ar
  38   21   26 ar
  39   22   23 ar
  40   22   41 1
  41   23   24 ar
  42   23   42 1
  43   24   25 ar
  44   24   43 1
  45   25   26 ar
  46   25   44 1
  47   27   28 1
  48   28   45 1
  49   28   46 1
  50   28   47 1

#	End of record

