#	Name: ASD01202029
#	Creating user name:	WinNT
#	Creation time:	15. 06. 2019 19:09

#	Modifying user name:	WinNT
#	Modification time:	15. 06. 2019 19:09

#	Program:	/corina/corina34_cracker 3.40 0067  02.08.2006

@<TRIPOS>MOLECULE
ASD01202029
  47   50    0    0    0
SMALL
NO_CHARGES


@<TRIPOS>ATOM
   1 C1            -0.0172     1.4164     0.0098 C.2     
   2 C2             0.0021    -0.0041     0.0020 C.2     
   3 C3             1.2871     1.8234    -0.0004 C.2     
   4 C4            -1.2105     2.2818     0.0205 C.2     
   5 C5             1.3088    -0.3739    -0.0124 C.2     
   6 O6             2.0693     0.7389    -0.0137 O.3     
   7 O7            -1.0845     3.4914     0.0260 O.2     
   8 N8            -2.4413     1.7325     0.0241 N.am    
   9 C9             1.8111    -1.7595    -0.0239 C.ar    
  10 C10           -3.5658     2.5479     0.0342 C.2     
  11 S11           -3.5356     4.2550     0.0352 S.3     
  12 N12           -4.7841     2.1256     0.0384 N.2     
  13 C13           -5.3008     4.2980     0.0486 C.2     
  14 C14           -5.7580     3.0418     0.0476 C.2     
  15 H15           -2.5418     0.7677     0.0197 H       
  16 C16            2.7815    -2.1566    -0.9697 C.ar    
  17 C17            3.2466    -3.4760    -0.9658 C.ar    
  18 C18            2.7576    -4.3752    -0.0440 C.ar    
  19 C19            1.8044    -3.9838     0.8845 C.ar    
  20 C20            1.3355    -2.6873     0.9033 C.ar    
  21 C21            3.2973    -1.1937    -1.9486 C.2     
  22 C22            4.3329    -1.6240    -2.9553 C.3     
  23 O23            2.8902    -0.0509    -1.9478 O.2     
  24 C24           -7.2843     3.0497     0.0614 C.3     
  25 C25           -7.6819     4.4740    -0.3755 C.3     
  26 C26           -6.4478     5.2915     0.0567 C.3     
  27 C27            1.7637     3.2531     0.0019 C.3     
  28 C28            1.9385     3.7300     1.4451 C.3     
  29 H29           -0.8549    -0.6614     0.0070 H       
  30 H30            3.9885    -3.7894    -1.6854 H       
  31 H31            3.1189    -5.3929    -0.0444 H       
  32 H32            1.4297    -4.6993     1.6015 H       
  33 H33            0.5932    -2.3922     1.6301 H       
  34 H34            3.8361    -1.9933    -3.8524 H       
  35 H35            4.9641    -0.7737    -3.2133 H       
  36 H36            4.9476    -2.4164    -2.5281 H       
  37 H37           -7.6730     2.3150    -0.6437 H       
  38 H38           -7.6548     2.8446     1.0658 H       
  39 H39           -7.8233     4.5258    -1.4551 H       
  40 H40           -8.5764     4.8080     0.1502 H       
  41 H41           -6.5910     5.6932     1.0598 H       
  42 H42           -6.2593     6.0977    -0.6523 H       
  43 H43            2.7180     3.3188    -0.5206 H       
  44 H44            1.0295     3.8816    -0.5021 H       
  45 H45            2.2832     4.7640     1.4469 H       
  46 H46            0.9841     3.6643     1.9676 H       
  47 H47            2.6726     3.1014     1.9491 H       
@<TRIPOS>BOND
   1    1    2 1
   2    1    3 2
   3    1    4 1
   4    2    5 2
   5    2   29 1
   6    3   27 1
   7    3    6 1
   8    4    7 2
   9    4    8 am
  10    5    9 1
  11    5    6 1
  12    8   15 1
  13    8   10 1
  14    9   16 ar
  15    9   20 ar
  16   10   12 2
  17   10   11 1
  18   11   13 1
  19   12   14 1
  20   13   14 2
  21   13   26 1
  22   14   24 1
  23   16   17 ar
  24   16   21 1
  25   17   18 ar
  26   17   30 1
  27   18   19 ar
  28   18   31 1
  29   19   20 ar
  30   19   32 1
  31   20   33 1
  32   21   22 1
  33   21   23 2
  34   22   34 1
  35   22   35 1
  36   22   36 1
  37   24   25 1
  38   24   37 1
  39   24   38 1
  40   25   26 1
  41   25   39 1
  42   25   40 1
  43   26   41 1
  44   26   42 1
  45   27   28 1
  46   27   43 1
  47   27   44 1
  48   28   45 1
  49   28   46 1
  50   28   47 1

#	End of record

