#	Name: ASD01910441
#	Creating user name:	WinNT
#	Creation time:	15. 06. 2019 19:55

#	Modifying user name:	WinNT
#	Modification time:	15. 06. 2019 19:55

#	Program:	/corina/corina34_cracker 3.40 0067  02.08.2006

@<TRIPOS>MOLECULE
ASD01910441
  46   49    0    0    0
SMALL
NO_CHARGES


@<TRIPOS>ATOM
   1 C1            -2.1752     6.9177    -0.1220 C.ar    
   2 C2            -2.9015     5.7925     0.2333 C.ar    
   3 C3            -2.2477     4.6444     0.6512 C.ar    
   4 C4            -0.8699     4.6175     0.7155 C.ar    
   5 C5            -0.1356     5.7469     0.3590 C.ar    
   6 C6            -0.7971     6.8993    -0.0611 C.ar    
   7 F7            -4.2509     5.8149     0.1726 F       
   8 C8             1.3465     5.7227     0.4270 C.2     
   9 N9             2.1812     6.7393     0.1132 N.2     
  10 C10            3.3897     6.2788     0.3202 C.2     
  11 O11            3.2630     5.0183     0.7465 O.3     
  12 N12            2.0899     4.7162     0.8072 N.2     
  13 C13            4.6806     7.0290     0.1157 C.3     
  14 C14            5.4412     7.1077     1.4414 C.3     
  15 C15            6.7367     7.8977     1.2421 C.3     
  16 C16            7.6194     7.1739     0.2204 C.3     
  17 N17            6.8445     6.9652    -1.0103 N.am    
  18 C18            5.5400     6.2954    -0.9187 C.3     
  19 C19            7.3213     7.3802    -2.2006 C.2     
  20 C20            6.5968     7.0562    -3.4342 C.2     
  21 O21            8.3528     8.0237    -2.2520 O.2     
  22 S22            5.8499     5.5087    -3.8245 S.3     
  23 C23            5.3294     6.1290    -5.3301 C.2     
  24 N24            5.7043     7.3605    -5.4644 N.2     
  25 C25            6.3765     7.8961    -4.4765 C.2     
  26 C26            6.8728     9.3188    -4.5005 C.3     
  27 C27            4.5455     5.3517    -6.3560 C.3     
  28 H28           -2.6885     7.8090    -0.4514 H       
  29 H29           -2.8176     3.7695     0.9273 H       
  30 H30           -0.3612     3.7225     1.0419 H       
  31 H31           -0.2317     7.7766    -0.3386 H       
  32 H32            4.4636     8.0364    -0.2395 H       
  33 H33            4.8220     7.6076     2.1862 H       
  34 H34            5.6791     6.1006     1.7839 H       
  35 H35            6.5009     8.8969     0.8759 H       
  36 H36            7.2665     7.9733     2.1917 H       
  37 H37            8.4975     7.7813     0.0008 H       
  38 H38            7.9307     6.2104     0.6241 H       
  39 H39            5.6818     5.2603    -0.6080 H       
  40 H40            5.0460     6.3232    -1.8899 H       
  41 H41            6.1125     9.9760    -4.0784 H       
  42 H42            7.7866     9.3949    -3.9112 H       
  43 H43            7.0782     9.6147    -5.5293 H       
  44 H44            3.4789     5.4783    -6.1706 H       
  45 H45            4.7871     5.7197    -7.3532 H       
  46 H46            4.8035     4.2950    -6.2863 H       
@<TRIPOS>BOND
   1    1    2 ar
   2    1    6 ar
   3    1   28 1
   4    2    3 ar
   5    2    7 1
   6    3    4 ar
   7    3   29 1
   8    4    5 ar
   9    4   30 1
  10    5    6 ar
  11    5    8 1
  12    6   31 1
  13    8    9 1
  14    8   12 2
  15    9   10 2
  16   10   11 1
  17   10   13 1
  18   11   12 1
  19   13   14 1
  20   13   18 1
  21   13   32 1
  22   14   15 1
  23   14   33 1
  24   14   34 1
  25   15   16 1
  26   15   35 1
  27   15   36 1
  28   16   17 1
  29   16   37 1
  30   16   38 1
  31   17   18 1
  32   17   19 am
  33   18   39 1
  34   18   40 1
  35   19   20 1
  36   19   21 2
  37   20   22 1
  38   20   25 2
  39   22   23 1
  40   23   24 2
  41   23   27 1
  42   24   25 1
  43   25   26 1
  44   26   41 1
  45   26   42 1
  46   26   43 1
  47   27   44 1
  48   27   45 1
  49   27   46 1

#	End of record

