#	Name: ASD01208461
#	Creating user name:	WinNT
#	Creation time:	15. 06. 2019 19:09

#	Modifying user name:	WinNT
#	Modification time:	15. 06. 2019 19:09

#	Program:	/corina/corina34_cracker 3.40 0067  02.08.2006

@<TRIPOS>MOLECULE
ASD01208461
  68   70    0    0    0
SMALL
NO_CHARGES


@<TRIPOS>ATOM
   1 C1             2.2088     1.5898    -0.4879 C.2     
   2 C2             1.8734     0.1227    -0.4091 C.3     
   3 C3             1.5866    -0.4111    -1.8140 C.3     
   4 O4             3.3139     1.9739    -0.1861 O.2     
   5 O5             1.2816     2.4691    -0.8987 O.3     
   6 N6             1.1450    -1.8052    -1.7260 N.am    
   7 C7             0.8342    -2.4857    -2.8470 C.2     
   8 O8             0.9204    -1.9420    -3.9326 O.2     
   9 N9             0.2510    -4.6134    -1.6019 N.pl3   
  10 C10            0.3923    -3.8806    -2.7590 C.2     
  11 C11            0.0442    -4.6903    -3.8215 C.2     
  12 C12           -0.3134    -5.9324    -3.3005 C.2     
  13 C13           -0.1794    -5.8653    -1.9306 C.2     
  14 C14           -0.4544    -6.9631    -0.9795 C.ar    
  15 C15           -0.8924    -8.2023    -1.4489 C.ar    
  16 C16           -1.1490    -9.2280    -0.5546 C.ar    
  17 C17           -0.9712    -9.0252     0.8065 C.ar    
  18 C18           -0.5363    -7.7947     1.2776 C.ar    
  19 C19           -0.2714    -6.7650     0.3892 C.ar    
  20 O20           -0.3646    -7.6009     2.6116 O.3     
  21 C21           -1.3212    -6.9085     3.2840 C.ar    
  22 C22           -1.1735    -6.6581     4.6407 C.ar    
  23 C23           -2.1474    -5.9540     5.3219 C.ar    
  24 C24           -3.2687    -5.4990     4.6529 C.ar    
  25 C25           -3.4185    -5.7476     3.3010 C.ar    
  26 C26           -2.4446    -6.4458     2.6138 C.ar    
  27 S27           -4.5090    -4.6012     5.5248 S.o2    
  28 O28           -5.6977    -4.8340     4.7817 O.2     
  29 O29           -4.3856    -5.0476     6.8682 O.2     
  30 C30           -3.9978    -2.8667     5.3809 C.3     
  31 O31           -1.5759   -10.4349    -1.0108 O.3     
  32 C32           -1.7360   -11.4744    -0.0434 C.3     
  33 C33           -1.6197   -12.8352    -0.7330 C.3     
  34 C34           -3.1122   -11.3518     0.6140 C.3     
  35 O35           -2.7049   -12.9999    -1.6479 O.3     
  36 C36           -2.6905   -14.2452    -2.3487 C.3     
  37 O37            2.9772    -0.5887     0.1546 O.3     
  38 C38            1.6746     3.8659    -0.9500 C.3     
  39 H39            0.9932    -0.0156     0.2188 H       
  40 H40            0.8042     0.1893    -2.2781 H       
  41 H41            2.4934    -0.3546    -2.4163 H       
  42 H42            1.0763    -2.2385    -0.8608 H       
  43 H43            0.4314    -4.2941    -0.7039 H       
  44 H44            0.0482    -4.4121    -4.8651 H       
  45 H45           -0.6374    -6.7923    -3.8680 H       
  46 H46           -1.0314    -8.3609    -2.5081 H       
  47 H47           -1.1722    -9.8273     1.5012 H       
  48 H48            0.0716    -5.8090     0.7562 H       
  49 H49           -0.2981    -7.0136     5.1638 H       
  50 H50           -2.0331    -5.7592     6.3780 H       
  51 H51           -4.2956    -5.3916     2.7809 H       
  52 H52           -2.5598    -6.6355     1.5569 H       
  53 H53           -3.9566    -2.5862     4.3284 H       
  54 H54           -4.7171    -2.2318     5.8982 H       
  55 H55           -3.0126    -2.7399     5.8295 H       
  56 H56           -0.9607   -11.3852     0.7175 H       
  57 H57           -0.6758   -12.8881    -1.2755 H       
  58 H58           -1.6529   -13.6262     0.0162 H       
  59 H59           -3.8875   -11.4410    -0.1469 H       
  60 H60           -3.2343   -12.1447     1.3519 H       
  61 H61           -3.1951   -10.3823     1.1053 H       
  62 H62           -2.7459   -15.0655    -1.6330 H       
  63 H63           -3.5458   -14.2927    -3.0227 H       
  64 H64           -1.7688   -14.3273    -2.9247 H       
  65 H65            3.7963    -0.5101    -0.3532 H       
  66 H66            0.8345     4.4673    -1.2974 H       
  67 H67            1.9713     4.1966     0.0453 H       
  68 H68            2.5132     3.9824    -1.6366 H       
@<TRIPOS>BOND
   1    1    2 1
   2    1    4 2
   3    1    5 1
   4    2    3 1
   5    2   37 1
   6    2   39 1
   7    3    6 1
   8    3   40 1
   9    3   41 1
  10    5   38 1
  11    6    7 am
  12    6   42 1
  13    7    8 2
  14    7   10 1
  15    9   10 1
  16    9   13 1
  17    9   43 1
  18   10   11 2
  19   11   12 1
  20   11   44 1
  21   12   13 2
  22   12   45 1
  23   13   14 1
  24   14   15 ar
  25   14   19 ar
  26   15   16 ar
  27   15   46 1
  28   16   17 ar
  29   16   31 1
  30   17   18 ar
  31   17   47 1
  32   18   19 ar
  33   18   20 1
  34   19   48 1
  35   20   21 1
  36   21   22 ar
  37   21   26 ar
  38   22   23 ar
  39   22   49 1
  40   23   24 ar
  41   23   50 1
  42   24   25 ar
  43   24   27 1
  44   25   26 ar
  45   25   51 1
  46   26   52 1
  47   27   28 2
  48   27   29 2
  49   27   30 1
  50   30   53 1
  51   30   54 1
  52   30   55 1
  53   31   32 1
  54   32   33 1
  55   32   34 1
  56   32   56 1
  57   33   35 1
  58   33   57 1
  59   33   58 1
  60   34   59 1
  61   34   60 1
  62   34   61 1
  63   35   36 1
  64   36   62 1
  65   36   63 1
  66   36   64 1
  67   37   65 1
  68   38   66 1
  69   38   67 1
  70   38   68 1

#	End of record

