#	Name: ASD01883840
#	Creating user name:	WinNT
#	Creation time:	15. 06. 2019 19:47

#	Modifying user name:	WinNT
#	Modification time:	15. 06. 2019 19:47

#	Program:	/corina/corina34_cracker 3.40 0067  02.08.2006

@<TRIPOS>MOLECULE
ASD01883840
  35   38    0    0    0
SMALL
NO_CHARGES


@<TRIPOS>ATOM
   1 C1             0.8480    -0.1950     1.0481 C.ar    
   2 O2             0.0021    -0.0041     0.0020 O.3     
   3 C3            -1.1396    -0.7379    -0.0367 C.2     
   4 C4            -3.5239    -0.9079     0.0552 C.2     
   5 C5            -2.3549    -0.1266     0.0991 C.2     
   6 C6            -1.0791    -2.1344    -0.2230 C.2     
   7 C7            -2.2111    -2.8651    -0.2622 C.2     
   8 N8            -5.5016    -1.7049     0.0482 N.2     
   9 N9            -4.8132    -0.6229     0.1531 N.2     
  10 N10           -3.4293    -2.2666    -0.1227 N.pl3   
  11 C11           -4.7105    -2.7320    -0.1207 C.2     
  12 C12           -5.1371    -4.1682    -0.2828 C.3     
  13 C13           -5.3500    -4.4726    -1.7670 C.3     
  14 C14           -5.6744    -5.9173    -2.1524 C.3     
  15 C15           -6.7644    -4.8455    -2.2159 C.3     
  16 Cl16          -2.4542     1.5919     0.3235 Cl      
  17 C17            2.9364     0.2505     2.1377 C.ar    
  18 C18            2.5703    -0.5837     3.1779 C.ar    
  19 C19            1.3474    -1.2285     3.1527 C.ar    
  20 C20            0.4856    -1.0361     2.0905 C.ar    
  21 C21            2.0783     0.4463     1.0731 C.ar    
  22 H22           -0.1213    -2.6208    -0.3351 H       
  23 H23           -2.1534    -3.9340    -0.4058 H       
  24 H24           -4.3630    -4.8243     0.1153 H       
  25 H25           -6.0681    -4.3341     0.2593 H       
  26 H26           -4.7387    -3.8925    -2.4583 H       
  27 H27           -5.2769    -6.2875    -3.0975 H       
  28 H28           -5.7362    -6.6509    -1.3486 H       
  29 H29           -7.5432    -4.8739    -1.4539 H       
  30 H30           -7.0839    -4.5105    -3.2027 H       
  31 H31            3.8920     0.7533     2.1600 H       
  32 H32            3.2428    -0.7357     4.0092 H       
  33 H33            1.0640    -1.8798     3.9663 H       
  34 H34           -0.4696    -1.5397     2.0715 H       
  35 H35            2.3648     1.0977     0.2607 H       
@<TRIPOS>BOND
   1    1    2 1
   2    1   21 ar
   3    1   20 ar
   4    2    3 1
   5    3    6 1
   6    3    5 2
   7    4    5 1
   8    4   10 1
   9    4    9 2
  10    5   16 1
  11    6    7 2
  12    6   22 1
  13    7   10 1
  14    7   23 1
  15    8    9 1
  16    8   11 2
  17   10   11 1
  18   11   12 1
  19   12   13 1
  20   12   24 1
  21   12   25 1
  22   13   14 1
  23   13   15 1
  24   13   26 1
  25   14   15 1
  26   14   27 1
  27   14   28 1
  28   15   29 1
  29   15   30 1
  30   17   18 ar
  31   17   21 ar
  32   17   31 1
  33   18   19 ar
  34   18   32 1
  35   19   20 ar
  36   19   33 1
  37   20   34 1
  38   21   35 1

#	End of record

