#	Name: ASD01900172
#	Creating user name:	WinNT
#	Creation time:	15. 06. 2019 19:51

#	Modifying user name:	WinNT
#	Modification time:	15. 06. 2019 19:51

#	Program:	/corina/corina34_cracker 3.40 0067  02.08.2006

@<TRIPOS>MOLECULE
ASD01900172
  29   32    0    0    0
SMALL
NO_CHARGES


@<TRIPOS>ATOM
   1 N1            -0.0167     1.3818     0.0096 N.pl3   
   2 C2             0.0021    -0.0041     0.0020 C.ar    
   3 N3            -1.1453    -0.6664     0.0094 N.ar    
   4 C4            -1.1627    -1.9889     0.0025 C.ar    
   5 C5             0.0384    -2.6808    -0.0127 C.ar    
   6 C6             1.2202    -1.9565    -0.0201 C.ar    
   7 N7             1.1670    -0.6349    -0.0179 N.ar    
   8 N8             2.3548     1.5554    -0.0125 N.2     
   9 C9             1.1755     2.0920     0.0021 C.2     
  10 S10            1.2941     3.7972     0.0101 S.3     
  11 C11            3.0465     3.6959    -0.0138 C.2     
  12 C12            4.0343     4.8305    -0.0426 C.3     
  13 C13            5.3327     4.4764     0.6824 C.3     
  14 C14            5.7750     3.0796     0.3359 C.2     
  15 N15            6.9640     2.5684     0.2667 N.2     
  16 N16            6.8494     1.2124    -0.0803 N.pl3   
  17 C17            5.5332     0.9204    -0.2256 C.2     
  18 C18            4.8483     2.0478     0.0154 C.2     
  19 C19            3.3910     2.3736    -0.0121 C.2     
  20 H20           -0.8633     1.8554     0.0162 H       
  21 H21           -2.1012    -2.5233     0.0089 H       
  22 H22            0.0530    -3.7607    -0.0183 H       
  23 H23            2.1729    -2.4651    -0.0319 H       
  24 H24            4.2628     5.0754    -1.0799 H       
  25 H25            3.5874     5.7020     0.4357 H       
  26 H26            6.1105     5.1818     0.3901 H       
  27 H27            5.1729     4.5454     1.7584 H       
  28 H28            7.5855     0.5914    -0.1966 H       
  29 H29            5.1147    -0.0404    -0.4865 H       
@<TRIPOS>BOND
   1    1    2 1
   2    1    9 1
   3    1   20 1
   4    2    3 ar
   5    2    7 ar
   6    3    4 ar
   7    4    5 ar
   8    4   21 1
   9    5    6 ar
  10    5   22 1
  11    6    7 ar
  12    6   23 1
  13    8    9 2
  14    8   19 1
  15    9   10 1
  16   10   11 1
  17   11   12 1
  18   11   19 2
  19   12   13 1
  20   12   24 1
  21   12   25 1
  22   13   14 1
  23   13   26 1
  24   13   27 1
  25   14   15 2
  26   14   18 1
  27   15   16 1
  28   16   17 1
  29   16   28 1
  30   17   18 2
  31   17   29 1
  32   18   19 1

#	End of record

