#	Name: ASD03730844
#	Creating user name:	WinNT
#	Creation time:	15. 06. 2019 20:44

#	Modifying user name:	WinNT
#	Modification time:	15. 06. 2019 20:44

#	Program:	/corina/corina34_cracker 3.40 0067  02.08.2006

@<TRIPOS>MOLECULE
ASD03730844
  59   65    0    0    0
SMALL
NO_CHARGES


@<TRIPOS>ATOM
   1 C1             1.3667    -1.2411    -2.5546 C.2     
   2 C2             0.7528    -1.4875    -1.2327 C.ar    
   3 C3             1.4886    -1.2698    -0.0664 C.ar    
   4 C4             0.9095    -1.5012     1.1639 C.ar    
   5 C5            -0.3977    -1.9480     1.2438 C.ar    
   6 C6            -1.1324    -2.1657     0.0920 C.ar    
   7 C7            -0.5669    -1.9331    -1.1449 C.ar    
   8 O8             2.4851    -0.7702    -2.6271 O.2     
   9 N9             0.6888    -1.5438    -3.6794 N.am    
  10 C10            2.9125    -0.7837    -0.1515 C.3     
  11 O11            1.4112    -3.3798     6.3828 O.3     
  12 C12            1.6252    -3.4645     7.8041 C.3     
  13 O13            3.0570    -3.3974     7.9393 O.3     
  14 C14            3.4948    -2.6984     6.8509 C.ar    
  15 C15            2.4827    -2.6888     5.8938 C.ar    
  16 C16            4.6942    -2.0582     6.5957 C.ar    
  17 C17            4.9003    -1.4034     5.3852 C.ar    
  18 C18            3.8849    -1.4077     4.4336 C.ar    
  19 C19            2.6856    -2.0398     4.6875 C.ar    
  20 O20            5.9866    -0.7058     4.9452 O.3     
  21 C21            4.4113    -0.6546     3.2413 C.3     
  22 C22            5.9200    -0.5772     3.5118 C.3     
  23 N23            3.4079    -0.4855     1.1945 N.am    
  24 C24            4.1096    -1.3555     1.9480 C.2     
  25 C25            3.7959     0.7069     3.1088 C.ar    
  26 C26            3.7267     1.8044     3.9375 C.ar    
  27 C27            3.0710     2.9485     3.5190 C.ar    
  28 C28            2.4847     2.9868     2.2669 C.ar    
  29 C29            2.5505     1.8897     1.4336 C.ar    
  30 C30            3.2089     0.7339     1.8464 C.ar    
  31 O31            4.4341    -2.4832     1.6414 O.2     
  32 C32            1.2538    -1.2727    -4.9321 C.ar    
  33 C33            0.6183    -1.7053    -6.0913 C.ar    
  34 C34            1.1784    -1.4356    -7.3263 C.ar    
  35 C35            2.3709    -0.7360    -7.4085 C.ar    
  36 C36            3.0042    -0.3050    -6.2554 C.ar    
  37 C37            2.4455    -0.5671    -5.0190 C.ar    
  38 F38            2.9172    -0.4741    -8.6161 F       
  39 F39           -0.5444    -2.3884    -6.0106 F       
  40 H40            1.4778    -1.3336     2.0669 H       
  41 H41           -0.8463    -2.1280     2.2096 H       
  42 H42           -2.1521    -2.5148     0.1612 H       
  43 H43           -1.1429    -2.0995    -2.0433 H       
  44 H44           -0.1904    -1.9495    -3.6215 H       
  45 H45            3.5338    -1.5564    -0.6044 H       
  46 H46            2.9525     0.1187    -0.7616 H       
  47 H47            1.1526    -2.6246     8.3133 H       
  48 H48            1.2478    -4.4105     8.1925 H       
  49 H49            5.4760    -2.0667     7.3408 H       
  50 H50            1.9029    -2.0289     3.9434 H       
  51 H51            6.3221     0.3836     3.1903 H       
  52 H52            6.4434    -1.3998     3.0246 H       
  53 H53            4.1851     1.7722     4.9149 H       
  54 H54            3.0173     3.8098     4.1683 H       
  55 H55            1.9727     3.8799     1.9403 H       
  56 H56            2.0898     1.9270     0.4575 H       
  57 H57            0.6860    -1.7709    -8.2272 H       
  58 H58            3.9341     0.2400    -6.3224 H       
  59 H59            2.9383    -0.2264    -4.1204 H       
@<TRIPOS>BOND
   1    1    2 1
   2    1    8 2
   3    1    9 am
   4    2    3 ar
   5    2    7 ar
   6    3    4 ar
   7    3   10 1
   8    4    5 ar
   9    4   40 1
  10    5    6 ar
  11    5   41 1
  12    6    7 ar
  13    6   42 1
  14    7   43 1
  15    9   32 1
  16    9   44 1
  17   10   23 1
  18   10   45 1
  19   10   46 1
  20   11   12 1
  21   11   15 1
  22   12   13 1
  23   12   47 1
  24   12   48 1
  25   13   14 1
  26   14   15 ar
  27   14   16 ar
  28   15   19 ar
  29   16   17 ar
  30   16   49 1
  31   17   18 ar
  32   17   20 1
  33   18   19 ar
  34   18   21 1
  35   19   50 1
  36   20   22 1
  37   21   22 1
  38   21   24 1
  39   21   25 1
  40   22   51 1
  41   22   52 1
  42   23   24 am
  43   23   30 1
  44   24   31 2
  45   25   26 ar
  46   25   30 ar
  47   26   27 ar
  48   26   53 1
  49   27   28 ar
  50   27   54 1
  51   28   29 ar
  52   28   55 1
  53   29   30 ar
  54   29   56 1
  55   32   33 ar
  56   32   37 ar
  57   33   34 ar
  58   33   39 1
  59   34   35 ar
  60   34   57 1
  61   35   36 ar
  62   35   38 1
  63   36   37 ar
  64   36   58 1
  65   37   59 1

#	End of record

