#	Name: ASD03090357
#	Creating user name:	WinNT
#	Creation time:	15. 06. 2019 20:28

#	Modifying user name:	WinNT
#	Modification time:	15. 06. 2019 20:28

#	Program:	/corina/corina34_cracker 3.40 0067  02.08.2006

@<TRIPOS>MOLECULE
ASD03090357
  48   51    0    0    0
SMALL
NO_CHARGES


@<TRIPOS>ATOM
   1 C1            -0.3306     0.9687    -0.8086 C.ar    
   2 C2            -0.1858    -0.1652    -0.0196 C.ar    
   3 C3             1.0515    -0.7545     0.1293 C.ar    
   4 C4             2.1643    -0.2115    -0.5143 C.ar    
   5 C5             2.0202     0.9281    -1.3060 C.ar    
   6 C6             0.7758     1.5165    -1.4507 C.ar    
   7 C7             3.4928    -0.8420    -0.3572 C.2     
   8 N8             7.0068    -0.8646    -0.4714 N.pl3   
   9 C9             7.4304     0.3538    -0.9961 C.ar    
  10 N10            4.6567    -0.2655    -0.5830 N.2     
  11 C11            5.6423    -1.1311    -0.3384 C.2     
  12 N12            5.1232    -2.2735     0.0473 N.2     
  13 N13            3.7285    -2.1100     0.0490 N.pl3   
  14 C14            2.7272    -3.1165     0.4103 C.3     
  15 C15            2.4705    -3.0596     1.8942 C.2     
  16 N16            1.5798    -3.9003     2.4567 N.am    
  17 O17            0.6524     2.6326    -2.2205 O.3     
  18 C18           -0.6703     2.9788    -2.6449 C.3     
  19 C19           -1.6063     2.8755    -1.4331 C.3     
  20 O20           -1.5629     1.5289    -0.9478 O.3     
  21 C21            6.6577     1.0354    -1.9359 C.ar    
  22 C22            7.1128     2.2395    -2.4312 C.ar    
  23 N23            8.2625     2.7462    -2.0270 N.ar    
  24 C24            9.0223     2.1318    -1.1393 C.ar    
  25 C25            8.6359     0.9271    -0.5911 C.ar    
  26 O26            3.0654    -2.2573     2.5822 O.2     
  27 C27            1.3303    -3.8450     3.8993 C.3     
  28 C28           10.3258     2.7580    -0.7154 C.3     
  29 F29           10.4505     4.0203    -1.3056 F       
  30 F30           10.3487     2.8899     0.6771 F       
  31 F31           11.3884     1.9451    -1.1244 F       
  32 H32           -1.0459    -0.5867     0.4794 H       
  33 H33            1.1597    -1.6358     0.7441 H       
  34 H34            2.8792     1.3508    -1.8060 H       
  35 H35            7.6595    -1.5281    -0.1982 H       
  36 H36            1.8001    -2.9159    -0.1267 H       
  37 H37            3.0949    -4.1072     0.1429 H       
  38 H38            1.1040    -4.5419     1.9065 H       
  39 H39           -0.6779     3.9987    -3.0294 H       
  40 H40           -0.9989     2.2897    -3.4229 H       
  41 H41           -1.2738     3.5598    -0.6525 H       
  42 H42           -2.6242     3.1253    -1.7325 H       
  43 H43            5.7163     0.6260    -2.2715 H       
  44 H44            6.5211     2.7743    -3.1593 H       
  45 H45            9.2623     0.4298     0.1346 H       
  46 H46            2.2573    -4.0456     4.4363 H       
  47 H47            0.9626    -2.8543     4.1667 H       
  48 H48            0.5853    -4.5938     4.1681 H       
@<TRIPOS>BOND
   1    1    2 ar
   2    1    6 ar
   3    1   20 1
   4    2    3 ar
   5    2   32 1
   6    3    4 ar
   7    3   33 1
   8    4    5 ar
   9    4    7 1
  10    5    6 ar
  11    5   34 1
  12    6   17 1
  13    7   10 2
  14    7   13 1
  15    8    9 1
  16    8   11 1
  17    8   35 1
  18    9   21 ar
  19    9   25 ar
  20   10   11 1
  21   11   12 2
  22   12   13 1
  23   13   14 1
  24   14   15 1
  25   14   36 1
  26   14   37 1
  27   15   16 am
  28   15   26 2
  29   16   27 1
  30   16   38 1
  31   17   18 1
  32   18   19 1
  33   18   39 1
  34   18   40 1
  35   19   20 1
  36   19   41 1
  37   19   42 1
  38   21   22 ar
  39   21   43 1
  40   22   23 ar
  41   22   44 1
  42   23   24 ar
  43   24   25 ar
  44   24   28 1
  45   25   45 1
  46   27   46 1
  47   27   47 1
  48   27   48 1
  49   28   29 1
  50   28   30 1
  51   28   31 1

#	End of record

