#	Name: ASD01209082
#	Creating user name:	WinNT
#	Creation time:	15. 06. 2019 19:10

#	Modifying user name:	WinNT
#	Modification time:	15. 06. 2019 19:10

#	Program:	/corina/corina34_cracker 3.40 0067  02.08.2006

@<TRIPOS>MOLECULE
ASD01209082
  54   56    0    0    0
SMALL
NO_CHARGES


@<TRIPOS>ATOM
   1 C1            -0.0187     1.5258     0.0104 C.3     
   2 C2             0.0021    -0.0041     0.0020 C.3     
   3 C3             0.7421    -0.5109     1.2415 C.3     
   4 C4             2.1775     0.0187     1.2307 C.3     
   5 C5             2.1567     1.5485     1.2391 C.3     
   6 C6             1.4167     2.0553    -0.0004 C.3     
   7 C7             2.9174    -0.4882     2.4702 C.3     
   8 C8             4.3854    -0.0630     2.3972 C.3     
   9 N9             5.0304    -0.7276     1.2620 N.am    
  10 C10            5.0858    -0.4547     3.6727 C.2     
  11 O11            5.8361    -1.4009     3.6836 O.2     
  12 C12            4.8499     0.3344     4.9348 C.3     
  13 C13            5.1247    -0.5534     6.1502 C.3     
  14 C14            5.7878     1.5429     4.9635 C.3     
  15 C15            5.6029    -0.0767     0.2264 C.2     
  16 C16            6.1266    -1.1590    -0.6828 C.3     
  17 N17            5.7654    -2.4088    -0.0109 N.am    
  18 C18            5.1306    -2.0561     1.1250 C.2     
  19 O19            5.6791     1.1221     0.0628 O.2     
  20 O20            4.6912    -2.8539     1.9297 O.2     
  21 C21            5.4949    -1.0700    -2.0741 C.3     
  22 C22            6.6633    -0.8948    -3.0695 C.3     
  23 C23            7.8884    -1.4843    -2.3260 C.3     
  24 C24            7.6466    -1.0436    -0.8589 C.3     
  25 H25           -0.5459     1.8868    -0.8726 H       
  26 H26           -0.5289     1.8773     0.9072 H       
  27 H27           -1.0205    -0.3814     0.0098 H       
  28 H28            0.5123    -0.3556    -0.8948 H       
  29 H29            0.2319    -0.1594     2.1383 H       
  30 H30            0.7568    -1.6008     1.2356 H       
  31 H31            2.6876    -0.3328     0.3339 H       
  32 H32            1.6465     1.9000     2.1359 H       
  33 H33            3.1793     1.9258     1.2314 H       
  34 H34            1.9269     1.7038    -0.8972 H       
  35 H35            1.4019     3.1452     0.0056 H       
  36 H36            2.4606    -0.0646     3.3646 H       
  37 H37            2.8557    -1.5756     2.5109 H       
  38 H38            4.4447     1.0175     2.2672 H       
  39 H39            3.8154     0.6766     4.9613 H       
  40 H40            6.1592    -0.8957     6.1237 H       
  41 H41            4.9541     0.0173     7.0630 H       
  42 H42            4.4565    -1.4144     6.1298 H       
  43 H43            5.5921     2.1753     4.0976 H       
  44 H44            5.6172     2.1136     5.8763 H       
  45 H45            6.8224     1.2006     4.9370 H       
  46 H46            5.9492    -3.3099    -0.3194 H       
  47 H47            4.9478    -1.9862    -2.2962 H       
  48 H48            4.8256    -0.2113    -2.1272 H       
  49 H49            6.4697    -1.4512    -3.9866 H       
  50 H50            6.8221     0.1610    -3.2892 H       
  51 H51            7.9016    -2.5713    -2.4053 H       
  52 H52            8.8149    -1.0570    -2.7096 H       
  53 H53            7.9714    -0.0138    -0.7107 H       
  54 H54            8.1630    -1.7113    -0.1692 H       
@<TRIPOS>BOND
   1    1    2 1
   2    1    6 1
   3    1   25 1
   4    1   26 1
   5    2    3 1
   6    2   27 1
   7    2   28 1
   8    3    4 1
   9    3   29 1
  10    3   30 1
  11    4    5 1
  12    4    7 1
  13    4   31 1
  14    5    6 1
  15    5   32 1
  16    5   33 1
  17    6   34 1
  18    6   35 1
  19    7    8 1
  20    7   36 1
  21    7   37 1
  22    8    9 1
  23    8   10 1
  24    8   38 1
  25    9   15 am
  26    9   18 am
  27   10   11 2
  28   10   12 1
  29   12   13 1
  30   12   14 1
  31   12   39 1
  32   13   40 1
  33   13   41 1
  34   13   42 1
  35   14   43 1
  36   14   44 1
  37   14   45 1
  38   15   16 1
  39   15   19 2
  40   16   17 1
  41   16   21 1
  42   16   24 1
  43   17   18 am
  44   17   46 1
  45   18   20 2
  46   21   22 1
  47   21   47 1
  48   21   48 1
  49   22   23 1
  50   22   49 1
  51   22   50 1
  52   23   24 1
  53   23   51 1
  54   23   52 1
  55   24   53 1
  56   24   54 1

#	End of record

