#	Name: ASD04882015
#	Creating user name:	WinNT
#	Creation time:	15. 06. 2019 20:53

#	Modifying user name:	WinNT
#	Modification time:	15. 06. 2019 20:53

#	Program:	/corina/corina34_cracker 3.40 0067  02.08.2006

@<TRIPOS>MOLECULE
ASD04882015
  74   79    0    0    0
SMALL
NO_CHARGES


@<TRIPOS>ATOM
   1 C1             1.0157    -0.3247    -1.2355 C.ar    
   2 C2             0.8437    -1.3029    -2.1974 C.ar    
   3 C3             1.8286    -1.5296    -3.1416 C.ar    
   4 C4             2.9876    -0.7791    -3.1264 C.ar    
   5 C5             3.1637     0.2046    -2.1613 C.ar    
   6 C6             2.1726     0.4296    -1.2146 C.ar    
   7 N7             4.3350     0.9652    -2.1427 N.3     
   8 C8             5.1020     0.7213    -0.9131 C.3     
   9 C9             6.4124     1.5101    -0.9675 C.3     
  10 N10            6.1140     2.9406    -1.1236 N.3     
  11 C11            5.3471     3.1845    -2.3532 C.3     
  12 C12            4.0366     2.3956    -2.2989 C.3     
  13 C13            7.2817     3.6989    -1.1051 C.ar    
  14 C14            7.6933     4.3673    -2.2520 C.ar    
  15 C15            8.8480     5.1186    -2.2382 C.ar    
  16 C16            9.6091     5.2108    -1.0700 C.ar    
  17 C17            9.1970     4.5397     0.0852 C.ar    
  18 C18            8.0355     3.7915     0.0687 C.ar    
  19 N19            7.6191     3.1176     1.2241 N.am    
  20 C20            8.5264     2.7316     2.1430 C.2     
  21 C21            8.1031     1.9457     3.3063 C.2     
  22 O22            9.6972     3.0353     2.0071 O.2     
  23 O23            6.8438     1.5437     3.5757 O.3     
  24 C24            8.9154     1.4875     4.3038 C.2     
  25 C25            8.0951     0.7886     5.2032 C.2     
  26 C26            6.8346     0.8471     4.7197 C.2     
  27 C27           10.8460     6.0146    -1.0558 C.2     
  28 N28           11.2426     6.6608    -2.1701 N.am    
  29 O29           11.5077     6.0942    -0.0387 O.2     
  30 C30           12.4709     7.4591    -2.1559 C.3     
  31 C31           12.6904     8.0817    -3.5362 C.3     
  32 C32           13.9539     8.9029    -3.5216 C.2     
  33 C33           14.0450    10.2244    -3.3039 C.2     
  34 C34           15.3164     8.4094    -3.7362 C.ar    
  35 C35           16.1576     9.5318    -3.6295 C.ar    
  36 N36           15.3539    10.6183    -3.3664 N.pl3   
  37 C37            4.0604    -1.0272    -4.1553 C.3     
  38 C38           15.8629     7.1517    -3.9994 C.ar    
  39 C39           17.2139     7.0177    -4.1522 C.ar    
  40 C40           18.0485     8.1223    -4.0474 C.ar    
  41 C41           17.5304     9.3723    -3.7895 C.ar    
  42 H42            0.2428    -0.1472    -0.5024 H       
  43 H43           -0.0617    -1.8915    -2.2113 H       
  44 H44            1.6912    -2.2947    -3.8914 H       
  45 H45            2.3064     1.1935    -0.4630 H       
  46 H46            4.5187     1.0441    -0.0507 H       
  47 H47            5.3214    -0.3429    -0.8265 H       
  48 H48            6.9697     1.3536    -0.0439 H       
  49 H49            7.0078     1.1683    -1.8142 H       
  50 H50            5.1276     4.2486    -2.4399 H       
  51 H51            5.9303     2.8617    -3.2156 H       
  52 H52            3.4794     2.5522    -3.2225 H       
  53 H53            3.4413     2.7374    -1.4522 H       
  54 H54            7.1069     4.2973    -3.1562 H       
  55 H55            9.1653     5.6366    -3.1312 H       
  56 H56            9.7835     4.6088     0.9895 H       
  57 H57            6.6779     2.9287     1.3629 H       
  58 H58            9.9823     1.6342     4.3849 H       
  59 H59            8.4122     0.2946     6.1097 H       
  60 H60            5.9633     0.4051     5.1799 H       
  61 H61           10.7148     6.5973    -2.9814 H       
  62 H62           12.3820     8.2495    -1.4107 H       
  63 H63           13.3174     6.8190    -1.9073 H       
  64 H64           12.7794     7.2913    -4.2814 H       
  65 H65           11.8439     8.7219    -3.7847 H       
  66 H66           13.2089    10.8796    -3.1088 H       
  67 H67           15.6686    11.5276    -3.2439 H       
  68 H68            3.8333    -0.4635    -5.0602 H       
  69 H69            5.0242    -0.7066    -3.7598 H       
  70 H70            4.0996    -2.0909    -4.3901 H       
  71 H71           15.2199     6.2879    -4.0815 H       
  72 H72           17.6361     6.0447    -4.3557 H       
  73 H73           19.1145     8.0004    -4.1703 H       
  74 H74           18.1879    10.2254    -3.7099 H       
@<TRIPOS>BOND
   1    1    2 ar
   2    1    6 ar
   3    1   42 1
   4    2    3 ar
   5    2   43 1
   6    3    4 ar
   7    3   44 1
   8    4    5 ar
   9    4   37 1
  10    5    6 ar
  11    5    7 1
  12    6   45 1
  13    7    8 1
  14    7   12 1
  15    8    9 1
  16    8   46 1
  17    8   47 1
  18    9   10 1
  19    9   48 1
  20    9   49 1
  21   10   11 1
  22   10   13 1
  23   11   12 1
  24   11   50 1
  25   11   51 1
  26   12   52 1
  27   12   53 1
  28   13   14 ar
  29   13   18 ar
  30   14   15 ar
  31   14   54 1
  32   15   16 ar
  33   15   55 1
  34   16   17 ar
  35   16   27 1
  36   17   18 ar
  37   17   56 1
  38   18   19 1
  39   19   20 am
  40   19   57 1
  41   20   21 1
  42   20   22 2
  43   21   23 1
  44   21   24 2
  45   23   26 1
  46   24   25 1
  47   24   58 1
  48   25   26 2
  49   25   59 1
  50   26   60 1
  51   27   28 am
  52   27   29 2
  53   28   30 1
  54   28   61 1
  55   30   31 1
  56   30   62 1
  57   30   63 1
  58   31   32 1
  59   31   64 1
  60   31   65 1
  61   32   33 2
  62   32   34 1
  63   33   36 1
  64   33   66 1
  65   34   35 ar
  66   34   38 ar
  67   35   36 1
  68   35   41 ar
  69   36   67 1
  70   37   68 1
  71   37   69 1
  72   37   70 1
  73   38   39 ar
  74   38   71 1
  75   39   40 ar
  76   39   72 1
  77   40   41 ar
  78   40   73 1
  79   41   74 1

#	End of record

