#	Name: ASD01816478
#	Creating user name:	WinNT
#	Creation time:	15. 06. 2019 19:35

#	Modifying user name:	WinNT
#	Modification time:	15. 06. 2019 19:35

#	Program:	/corina/corina34_cracker 3.40 0067  02.08.2006

@<TRIPOS>MOLECULE
ASD01816478
  67   72    0    0    0
SMALL
NO_CHARGES


@<TRIPOS>ATOM
   1 C1            -0.2428     1.6971    -0.0790 C.ar    
   2 C2            -0.2902     0.3140    -0.1442 C.ar    
   3 C3             0.8715    -0.4270    -0.2090 C.ar    
   4 C4             2.1063     0.2122    -0.2093 C.ar    
   5 C5             2.1509     1.6148    -0.1431 C.ar    
   6 C6             0.9724     2.3508    -0.0781 C.ar    
   7 N7             3.2757    -0.5254    -0.2737 N.pl3   
   8 C8             4.4953     0.0364    -0.2774 C.2     
   9 C9             4.6634     1.3974    -0.2162 C.2     
  10 C10            3.4714     2.2728    -0.1447 C.2     
  11 C11            5.8051     2.3069    -0.2013 C.2     
  12 N12            5.2917     3.5540    -0.1290 N.am    
  13 N13            3.8958     3.5028    -0.0966 N.2     
  14 C14            6.0466     4.7248    -0.0920 C.ar    
  15 O15            6.9855     2.0019    -0.2449 O.2     
  16 C16            3.1784    -1.9857    -0.3404 C.3     
  17 C17            3.1094    -2.4192    -1.7820 C.ar    
  18 C18            4.2731    -2.6958    -2.4759 C.ar    
  19 C19            4.2130    -3.0929    -3.7974 C.ar    
  20 C20            2.9826    -3.2147    -4.4289 C.ar    
  21 C21            1.8159    -2.9367    -3.7295 C.ar    
  22 C22            1.8821    -2.5450    -2.4067 C.ar    
  23 N23            2.9184    -3.6171    -5.7702 N.pl3   
  24 C24            1.7914    -3.7747    -6.5008 C.2     
  25 C25            2.1574    -4.1710    -7.7418 C.2     
  26 C26            3.5535    -4.2588    -7.7719 C.2     
  27 N27            4.0107    -3.9213    -6.5929 N.2     
  28 C28            6.9784     4.9858    -1.0873 C.ar    
  29 C29            7.7248     6.1466    -1.0489 C.ar    
  30 C30            7.5512     7.0581    -0.0203 C.ar    
  31 C31            6.6310     6.8155     0.9769 C.ar    
  32 C32            5.8645     5.6487     0.9486 C.ar    
  33 C33            4.8775     5.3831     2.0124 C.2     
  34 O34            4.9608     4.3703     2.6800 O.2     
  35 N35            3.8834     6.2632     2.2443 N.am    
  36 C36            3.2797     6.4714     4.6051 C.3     
  37 C37            2.8467     5.9536     3.2320 C.3     
  38 C38            3.1569     7.3103     0.1569 C.3     
  39 C39            3.8396     7.5293     1.5086 C.3     
  40 H40           -1.1600     2.2656    -0.0331 H       
  41 H41           -1.2460    -0.1890    -0.1440 H       
  42 H42            0.8220    -1.5047    -0.2592 H       
  43 H43            1.0083     3.4291    -0.0276 H       
  44 H44            5.3669    -0.5993    -0.3294 H       
  45 H45            4.0550    -2.4301     0.1311 H       
  46 H46            2.2795    -2.3141     0.1813 H       
  47 H47            5.2299    -2.6008    -1.9841 H       
  48 H48            5.1223    -3.3081    -4.3390 H       
  49 H49            0.8574    -3.0302    -4.2182 H       
  50 H50            0.9749    -2.3287    -1.8621 H       
  51 H51            0.7808    -3.6138    -6.1556 H       
  52 H52            1.4897    -4.3822    -8.5640 H       
  53 H53            4.1512    -4.5504    -8.6228 H       
  54 H54            7.1198     4.2800    -1.8924 H       
  55 H55            8.4488     6.3451    -1.8254 H       
  56 H56            8.1401     7.9632     0.0006 H       
  57 H57            6.5000     7.5290     1.7770 H       
  58 H58            4.2139     5.9914     4.8964 H       
  59 H59            3.4252     7.5506     4.5571 H       
  60 H60            2.5083     6.2412     5.3400 H       
  61 H61            1.9124     6.4337     2.9408 H       
  62 H62            2.7012     4.8745     3.2800 H       
  63 H63            3.7186     6.5748    -0.4189 H       
  64 H64            2.1415     6.9479     0.3172 H       
  65 H65            3.1243     8.2524    -0.3905 H       
  66 H66            3.2778     8.2648     2.0844 H       
  67 H67            4.8550     7.8917     1.3483 H       
@<TRIPOS>BOND
   1    1    2 ar
   2    1    6 ar
   3    1   40 1
   4    2    3 ar
   5    2   41 1
   6    3    4 ar
   7    3   42 1
   8    4    5 ar
   9    4    7 1
  10    5    6 ar
  11    5   10 1
  12    6   43 1
  13    7    8 1
  14    7   16 1
  15    8    9 2
  16    8   44 1
  17    9   10 1
  18    9   11 1
  19   10   13 2
  20   11   12 am
  21   11   15 2
  22   12   13 1
  23   12   14 1
  24   14   28 ar
  25   14   32 ar
  26   16   17 1
  27   16   45 1
  28   16   46 1
  29   17   18 ar
  30   17   22 ar
  31   18   19 ar
  32   18   47 1
  33   19   20 ar
  34   19   48 1
  35   20   21 ar
  36   20   23 1
  37   21   22 ar
  38   21   49 1
  39   22   50 1
  40   23   24 1
  41   23   27 1
  42   24   25 2
  43   24   51 1
  44   25   26 1
  45   25   52 1
  46   26   27 2
  47   26   53 1
  48   28   29 ar
  49   28   54 1
  50   29   30 ar
  51   29   55 1
  52   30   31 ar
  53   30   56 1
  54   31   32 ar
  55   31   57 1
  56   32   33 1
  57   33   34 2
  58   33   35 am
  59   35   37 1
  60   35   39 1
  61   36   37 1
  62   36   58 1
  63   36   59 1
  64   36   60 1
  65   37   61 1
  66   37   62 1
  67   38   39 1
  68   38   63 1
  69   38   64 1
  70   38   65 1
  71   39   66 1
  72   39   67 1

#	End of record

