#	Name: ASD03330798
#	Creating user name:	WinNT
#	Creation time:	15. 06. 2019 20:38

#	Modifying user name:	WinNT
#	Modification time:	15. 06. 2019 20:38

#	Program:	/corina/corina34_cracker 3.40 0067  02.08.2006

@<TRIPOS>MOLECULE
ASD03330798
  60   62    0    0    0
SMALL
NO_CHARGES


@<TRIPOS>ATOM
   1 C1             0.3175     2.1550    -0.3917 C.2     
   2 N2             0.0227     0.8280    -0.3910 N.pl3   
   3 C3             1.5972     2.2810     0.0571 C.2     
   4 N4             2.0701     1.0406     0.3075 N.2     
   5 C5             1.1340     0.1619     0.0359 C.2     
   6 C6             1.2624    -1.3058     0.1704 C.ar    
   7 C7             2.3343     3.5443     0.2369 C.2     
   8 O8             1.7977     4.6039    -0.0248 O.2     
   9 C9             4.3357     4.7814     0.8700 C.3     
  10 N10            3.6030     3.5255     0.6913 N.am    
  11 C11            5.4296     4.5884     1.9222 C.3     
  12 C12            4.9633     5.1874    -0.4385 C.2     
  13 O13            4.8133     4.4958    -1.4234 O.2     
  14 C14           -1.2667     0.2437    -0.7702 C.3     
  15 C15           -1.7341     0.8703    -2.0876 C.3     
  16 C16           -2.5239     2.1435    -1.8015 C.3     
  17 N17           -1.9988     2.8356    -0.6229 N.3     
  18 C18           -0.6066     3.2616    -0.8294 C.3     
  19 C19            2.4989    -1.9213    -0.0269 C.ar    
  20 C20            2.6125    -3.2921     0.0999 C.ar    
  21 C21           -2.8500     3.9764    -0.2596 C.3     
  22 N22            5.6913     6.3191    -0.5143 N.am    
  23 C23            1.4999    -4.0550     0.4227 C.ar    
  24 C24            4.7858     4.3435     3.2883 C.3     
  25 C25            0.1488    -2.0785     0.5004 C.ar    
  26 C26            0.2718    -3.4478     0.6186 C.ar    
  27 C27            4.0289     3.0141     3.2645 C.3     
  28 C28            5.8736     4.2919     4.3629 C.3     
  29 C29            3.8109     5.4798     3.6037 C.3     
  30 Cl30           1.6484    -5.7774     0.5809 Cl      
  31 F31            3.8086    -3.8906    -0.0910 F       
  32 H32            3.6476     5.5597     1.1999 H       
  33 H33            4.0309     2.6804     0.9000 H       
  34 H34            6.0462     3.7310     1.6522 H       
  35 H35            6.0511     5.4826     1.9684 H       
  36 H36           -1.1552    -0.8330    -0.8982 H       
  37 H37           -2.0012     0.4448     0.0097 H       
  38 H38           -0.8668     1.1122    -2.7018 H       
  39 H39           -2.3686     0.1623    -2.6207 H       
  40 H40           -2.4585     2.8064    -2.6643 H       
  41 H41           -3.5686     1.8851    -1.6286 H       
  42 H42           -0.4081     4.1567    -0.2400 H       
  43 H43           -0.4439     3.4759    -1.8857 H       
  44 H44            3.3651    -1.3274    -0.2786 H       
  45 H45           -3.8567     3.6224    -0.0374 H       
  46 H46           -2.4372     4.4726     0.6188 H       
  47 H47           -2.8877     4.6808    -1.0906 H       
  48 H48            5.8112     6.8723     0.2734 H       
  49 H49            6.0952     6.5805    -1.3565 H       
  50 H50           -0.8094    -1.6060     0.6588 H       
  51 H51           -0.5903    -4.0461     0.8742 H       
  52 H52            4.6862     2.2284     2.8922 H       
  53 H53            3.7001     2.7650     4.2735 H       
  54 H54            3.1610     3.1017     2.6109 H       
  55 H55            6.4129     5.2390     4.3799 H       
  56 H56            5.4149     4.1174     5.3362 H       
  57 H57            6.5681     3.4823     4.1382 H       
  58 H58            3.0359     5.5166     2.8381 H       
  59 H59            3.3522     5.3054     4.5770 H       
  60 H60            4.3502     6.4269     3.6207 H       
@<TRIPOS>BOND
   1    1    2 1
   2    1    3 2
   3    1   18 1
   4    2   14 1
   5    2    5 1
   6    3    4 1
   7    3    7 1
   8    4    5 2
   9    5    6 1
  10    6   25 ar
  11    6   19 ar
  12    7    8 2
  13    7   10 am
  14    9   10 1
  15    9   11 1
  16    9   12 1
  17    9   32 1
  18   10   33 1
  19   11   24 1
  20   11   34 1
  21   11   35 1
  22   12   13 2
  23   12   22 am
  24   14   15 1
  25   14   36 1
  26   14   37 1
  27   15   16 1
  28   15   38 1
  29   15   39 1
  30   16   17 1
  31   16   40 1
  32   16   41 1
  33   17   18 1
  34   17   21 1
  35   18   42 1
  36   18   43 1
  37   19   20 ar
  38   19   44 1
  39   20   31 1
  40   20   23 ar
  41   21   45 1
  42   21   46 1
  43   21   47 1
  44   22   48 1
  45   22   49 1
  46   23   30 1
  47   23   26 ar
  48   24   27 1
  49   24   28 1
  50   24   29 1
  51   25   26 ar
  52   25   50 1
  53   26   51 1
  54   27   52 1
  55   27   53 1
  56   27   54 1
  57   28   55 1
  58   28   56 1
  59   28   57 1
  60   29   58 1
  61   29   59 1
  62   29   60 1

#	End of record

