#	Name: ASD01813537
#	Creating user name:	WinNT
#	Creation time:	15. 06. 2019 19:30

#	Modifying user name:	WinNT
#	Modification time:	15. 06. 2019 19:30

#	Program:	/corina/corina34_cracker 3.40 0067  02.08.2006

@<TRIPOS>MOLECULE
ASD01813537
  49   51    0    0    0
SMALL
NO_CHARGES


@<TRIPOS>ATOM
   1 Cl1            0.0000     0.0000     0.0000 Cl      
   2 H2             0.0000     1.3700     0.0000 H       
   3 F3             8.8964     8.1008    14.8894 F       
   4 C4             8.8774     9.4996    14.8971 C.3     
   5 H5             9.8998     9.8775    14.8893 H       
   6 C6             8.1595     9.9940    16.1550 C.3     
   7 N7             6.7760     9.5018    16.1558 N.3     
   8 C8             6.0290    10.0151    15.0004 C.3     
   9 C9             6.6833     9.5214    13.7081 C.3     
  10 C10            8.1353    10.0076    13.6578 C.3     
  11 H11            8.1540    11.0974    13.6433 H       
  12 N12            8.7850     9.4894    12.4514 N.am    
  13 C13            8.6664    10.1529    11.2842 C.2     
  14 O14            8.0196    11.1822    11.2326 O.2     
  15 C15            9.3179     9.6332    10.0744 C.2     
  16 C16           10.0657     8.4974     9.9740 C.2     
  17 N17           10.5003     8.3463     8.6998 N.pl3   
  18 C18           11.3303     7.2361     8.2257 C.3     
  19 C19           12.7808     7.6435     8.2588 C.ar    
  20 C20           13.3728     8.2500     7.1608 C.ar    
  21 C21           14.7049     8.6103     7.2260 C.ar    
  22 N22           15.4133     8.3836     8.3154 N.ar    
  23 C23           14.8840     7.8086     9.3799 C.ar    
  24 F24           15.6476     7.5960    10.4739 F       
  25 C25           13.5526     7.4262     9.3887 C.ar    
  26 C26           10.0500     9.3859     7.9111 C.ar    
  27 C27           10.2101     9.6983     6.5630 C.ar    
  28 F28           10.9368     8.8878     5.7629 F       
  29 C29            9.6255    10.8358     6.0457 C.ar    
  30 C30            8.8767    11.6767     6.8562 C.ar    
  31 C31            8.7072    11.3844     8.1939 C.ar    
  32 F32            7.9779    12.2052     8.9810 F       
  33 C33            9.2868    10.2337     8.7281 C.ar    
  34 H34            8.6779     9.6221    17.0388 H       
  35 H35            8.1572    11.0839    16.1672 H       
  36 H36            6.7509     8.4934    16.1836 H       
  37 H37            5.0000     9.6585    15.0457 H       
  38 H38            6.0367    11.1049    15.0181 H       
  39 H39            6.6636     8.4318    13.6834 H       
  40 H40            6.1379     9.9153    12.8505 H       
  41 H41            9.3006     8.6688    12.4926 H       
  42 H42           10.2796     7.8203    10.7878 H       
  43 H43           11.1814     6.3700     8.8705 H       
  44 H44           11.0476     6.9816     7.2042 H       
  45 H45           12.7993     8.4381     6.2652 H       
  46 H46           15.1721     9.0829     6.3747 H       
  47 H47           13.1230     6.9604    10.2632 H       
  48 H48            9.7522    11.0742     5.0000 H       
  49 H49            8.4249    12.5641     6.4383 H       
@<TRIPOS>BOND
   1    1    2 1
   2    3    4 1
   3    4    5 1
   4    4   10 1
   5    4    6 1
   6    6    7 1
   7    6   34 1
   8    6   35 1
   9    7    8 1
  10    7   36 1
  11    8    9 1
  12    8   37 1
  13    8   38 1
  14    9   10 1
  15    9   39 1
  16    9   40 1
  17   10   11 1
  18   10   12 1
  19   12   13 am
  20   12   41 1
  21   13   14 2
  22   13   15 1
  23   15   33 1
  24   15   16 2
  25   16   17 1
  26   16   42 1
  27   17   18 1
  28   17   26 1
  29   18   19 1
  30   18   43 1
  31   18   44 1
  32   19   25 ar
  33   19   20 ar
  34   20   21 ar
  35   20   45 1
  36   21   22 ar
  37   21   46 1
  38   22   23 ar
  39   23   24 1
  40   23   25 ar
  41   25   47 1
  42   26   33 ar
  43   26   27 ar
  44   27   28 1
  45   27   29 ar
  46   29   30 ar
  47   29   48 1
  48   30   31 ar
  49   30   49 1
  50   31   32 1
  51   31   33 ar

#	End of record

