#	Name: ASD08830193
#	Creating user name:	WinNT
#	Creation time:	15. 06. 2019 21:20

#	Modifying user name:	WinNT
#	Modification time:	15. 06. 2019 21:20

#	Program:	/corina/corina34_cracker 3.40 0067  02.08.2006

@<TRIPOS>MOLECULE
ASD08830193
  54   57    0    0    0
SMALL
NO_CHARGES


@<TRIPOS>ATOM
   1 C1             0.1361     1.7679    -1.5184 C.ar    
   2 C2             0.2096     0.4004    -2.0581 C.2     
   3 C3            -1.0295    -0.2622    -2.6028 C.3     
   4 C4            -0.6809    -1.6677    -3.0969 C.3     
   5 N5            -1.8887    -2.3136    -3.6279 N.3     
   6 O6             1.2670    -0.1928    -2.0644 O.2     
   7 C7            -1.0846     2.4497    -1.5059 C.ar    
   8 C8            -1.5543    -3.5641    -4.3248 C.3     
   9 C9            -2.8437    -4.2328    -4.8088 C.3     
  10 O10           -3.5619    -3.3221    -5.6455 O.3     
  11 C11           -3.9044    -2.0936    -4.9984 C.3     
  12 C12           -2.6258    -1.4032    -4.5163 C.3     
  13 C13            1.2852     2.3822    -1.0133 C.ar    
  14 C14            1.2123     3.6699    -0.5058 C.ar    
  15 C15           -0.0069     4.3406    -0.5040 C.ar    
  16 C16           -1.1492     3.7373    -0.9967 C.ar    
  17 N17            2.3515     4.2979     0.0031 N.am    
  18 C18            2.3364     5.5390     0.5054 C.2     
  19 N19            1.2240     6.2932     0.5651 N.am    
  20 C20           -0.0446     5.7435     0.0581 C.3     
  21 O21            3.3765     6.0060     0.9277 O.2     
  22 C22            3.5641     3.5977    -0.0122 C.ar    
  23 C23            4.4104     3.6958    -1.1088 C.ar    
  24 C24            5.6059     3.0044    -1.1207 C.ar    
  25 C25            5.9605     2.2150    -0.0421 C.ar    
  26 C26            5.1199     2.1152     1.0514 C.ar    
  27 C27            3.9255     2.8083     1.0716 C.ar    
  28 O28           -2.3316     4.4073    -0.9871 O.3     
  29 C29           -3.4701     3.7216    -1.5120 C.3     
  30 H30           -1.7811    -0.3296    -1.8163 H       
  31 H31           -1.4223     0.3271    -3.4313 H       
  32 H32            0.0708    -1.6003    -3.8834 H       
  33 H33           -0.2880    -2.2570    -2.2684 H       
  34 H34           -1.9743     1.9747    -1.8922 H       
  35 H35           -0.9150    -3.3445    -5.1799 H       
  36 H36           -1.0317    -4.2333    -3.6412 H       
  37 H37           -2.5974    -5.1308    -5.3755 H       
  38 H38           -3.4592    -4.5009    -3.9501 H       
  39 H39           -4.4253    -1.4444    -5.7022 H       
  40 H40           -4.5508    -2.2995    -4.1452 H       
  41 H41           -2.8854    -0.4950    -3.9724 H       
  42 H42           -2.0036    -1.1491    -5.3744 H       
  43 H43            2.2277     1.8547    -1.0180 H       
  44 H44            1.2573     7.1884     0.9372 H       
  45 H45           -0.4112     6.4096    -0.7228 H       
  46 H46           -0.7672     5.7583     0.8741 H       
  47 H47            4.1339     4.3119    -1.9516 H       
  48 H48            6.2643     3.0800    -1.9734 H       
  49 H49            6.8957     1.6749    -0.0540 H       
  50 H50            5.3995     1.4975     1.8921 H       
  51 H51            3.2694     2.7299     1.9259 H       
  52 H52           -3.2890     3.4622    -2.5551 H       
  53 H53           -3.6440     2.8125    -0.9364 H       
  54 H54           -4.3459     4.3672    -1.4450 H       
@<TRIPOS>BOND
   1    1    2 1
   2    1   13 ar
   3    1    7 ar
   4    2    3 1
   5    2    6 2
   6    3    4 1
   7    3   30 1
   8    3   31 1
   9    4    5 1
  10    4   32 1
  11    4   33 1
  12    5    8 1
  13    5   12 1
  14    7   16 ar
  15    7   34 1
  16    8    9 1
  17    8   35 1
  18    8   36 1
  19    9   10 1
  20    9   37 1
  21    9   38 1
  22   10   11 1
  23   11   12 1
  24   11   39 1
  25   11   40 1
  26   12   41 1
  27   12   42 1
  28   13   14 ar
  29   13   43 1
  30   14   15 ar
  31   14   17 1
  32   15   16 ar
  33   15   20 1
  34   16   28 1
  35   17   18 am
  36   17   22 1
  37   18   19 am
  38   18   21 2
  39   19   20 1
  40   19   44 1
  41   20   45 1
  42   20   46 1
  43   22   23 ar
  44   22   27 ar
  45   23   24 ar
  46   23   47 1
  47   24   25 ar
  48   24   48 1
  49   25   26 ar
  50   25   49 1
  51   26   27 ar
  52   26   50 1
  53   27   51 1
  54   28   29 1
  55   29   52 1
  56   29   53 1
  57   29   54 1

#	End of record

