#	Name: ASD01884038
#	Creating user name:	WinNT
#	Creation time:	15. 06. 2019 19:47

#	Modifying user name:	WinNT
#	Modification time:	15. 06. 2019 19:47

#	Program:	/corina/corina34_cracker 3.40 0067  02.08.2006

@<TRIPOS>MOLECULE
ASD01884038
  51   55    0    0    0
SMALL
NO_CHARGES


@<TRIPOS>ATOM
   1 C1            -0.1279     1.8435     0.0577 C.3     
   2 C2            -0.5740     0.4055    -0.0065 C.2     
   3 N3            -0.8609    -0.2722    -1.1103 N.2     
   4 C4            -1.2168    -1.5042    -0.7967 C.2     
   5 C5            -1.6521    -2.7872    -1.3708 C.2     
   6 O6            -1.8052    -3.0109    -2.5567 O.2     
   7 N7            -1.8542    -3.6749    -0.3796 N.am    
   8 C8            -2.2921    -5.0634    -0.5423 C.3     
   9 C9            -1.0688    -5.9691    -0.6975 C.3     
  10 C10           -0.8265    -7.0209     0.3869 C.3     
  11 C11           -1.3187    -7.4485    -0.9972 C.3     
  12 C12           -1.5580    -3.0069     0.8926 C.3     
  13 N13           -1.1600    -1.6361     0.5653 N.pl3   
  14 C14           -0.7495    -0.4379     1.0731 C.2     
  15 C15           -0.5378    -0.1071     2.4968 C.ar    
  16 C16            0.7158    -0.2981     3.0812 C.ar    
  17 C17            0.9095     0.0118     4.4100 C.ar    
  18 C18           -0.1400     0.5138     5.1695 C.ar    
  19 O19            0.0565     0.8174     6.4788 O.3     
  20 C20           -0.4227    -0.0436     7.4112 C.ar    
  21 C21           -0.3393     0.2854     8.7568 C.ar    
  22 C22           -0.8319    -0.6003     9.7019 C.ar    
  23 C23           -1.3933    -1.7894     9.2658 C.ar    
  24 C24           -1.4448    -2.0557     7.9044 C.ar    
  25 O25           -1.9932    -3.2175     7.4682 O.3     
  26 C26           -2.0169    -3.4335     6.0558 C.3     
  27 F27           -2.7537    -2.4157     5.4406 F       
  28 F28           -0.7083    -3.4263     5.5609 F       
  29 N29           -0.9699    -1.1863     7.0276 N.ar    
  30 C30           -1.3891     0.7065     4.5942 C.ar    
  31 C31           -1.5913     0.4041     3.2626 C.ar    
  32 F32           -2.8050     0.5968     2.7013 F       
  33 H33            0.9595     1.8896    -0.0022 H       
  34 H34           -0.5615     2.3960    -0.7758 H       
  35 H35           -0.4589     2.2850     0.9977 H       
  36 H36           -2.8621    -5.3697     0.3348 H       
  37 H37           -2.9195    -5.1448    -1.4299 H       
  38 H38           -0.1943    -5.5041    -1.1525 H       
  39 H39            0.2077    -7.2480     0.6457 H       
  40 H40           -1.5385    -7.0676     1.2109 H       
  41 H41           -2.3545    -7.7765    -1.0838 H       
  42 H42           -0.6083    -7.9569    -1.6491 H       
  43 H43           -2.4462    -2.9967     1.5243 H       
  44 H44           -0.7429    -3.5203     1.4026 H       
  45 H45            1.5328    -0.6885     2.4926 H       
  46 H46            1.8791    -0.1364     4.8621 H       
  47 H47            0.1048     1.2207     9.0639 H       
  48 H48           -0.7791    -0.3688    10.7555 H       
  49 H49           -1.7859    -2.5012     9.9769 H       
  50 H50           -2.4804    -4.3969     5.8433 H       
  51 H51           -2.2021     1.0973     5.1881 H       
@<TRIPOS>BOND
   1    1    2 1
   2    1   33 1
   3    1   34 1
   4    1   35 1
   5    2   14 2
   6    2    3 1
   7    3    4 2
   8    4   13 1
   9    4    5 1
  10    5    6 2
  11    5    7 am
  12    7    8 1
  13    7   12 1
  14    8    9 1
  15    8   36 1
  16    8   37 1
  17    9   11 1
  18    9   10 1
  19    9   38 1
  20   10   11 1
  21   10   39 1
  22   10   40 1
  23   11   41 1
  24   11   42 1
  25   12   13 1
  26   12   43 1
  27   12   44 1
  28   13   14 1
  29   14   15 1
  30   15   31 ar
  31   15   16 ar
  32   16   17 ar
  33   16   45 1
  34   17   18 ar
  35   17   46 1
  36   18   19 1
  37   18   30 ar
  38   19   20 1
  39   20   29 ar
  40   20   21 ar
  41   21   22 ar
  42   21   47 1
  43   22   23 ar
  44   22   48 1
  45   23   24 ar
  46   23   49 1
  47   24   25 1
  48   24   29 ar
  49   25   26 1
  50   26   27 1
  51   26   28 1
  52   26   50 1
  53   30   31 ar
  54   30   51 1
  55   31   32 1

#	End of record

