#	Name: ASD02030471
#	Creating user name:	WinNT
#	Creation time:	15. 06. 2019 20:15

#	Modifying user name:	WinNT
#	Modification time:	15. 06. 2019 20:15

#	Program:	/corina/corina34_cracker 3.40 0067  02.08.2006

@<TRIPOS>MOLECULE
ASD02030471
  42   43    0    0    0
SMALL
NO_CHARGES


@<TRIPOS>ATOM
   1 C1            -0.0144     1.2109     0.0087 C.2     
   2 O2             0.0700    -0.0010    -0.0177 O.2     
   3 C3             1.2118     2.0405    -0.0521 C.ar    
   4 C4             2.4620     1.4333     0.0425 C.ar    
   5 C5             3.5998     2.2223    -0.0160 C.ar    
   6 C6             3.4476     3.5919    -0.1672 C.ar    
   7 C7             2.1729     4.1281    -0.2547 C.ar    
   8 N8             1.1100     3.3553    -0.2017 N.ar    
   9 C9             2.0023     5.6164    -0.4185 C.3     
  10 C10            2.0360     6.2880     0.9558 C.3     
  11 C11            3.1376     6.1677    -1.2834 C.3     
  12 N12           -1.2237     1.8006     0.0877 N.am    
  13 C13           -2.4583     1.0083    -0.0184 C.3     
  14 C14           -3.3619     1.3536     1.1701 C.3     
  15 N15           -3.5601     2.8082     1.2241 N.3     
  16 C16           -2.2914     3.5104     1.4589 C.3     
  17 C17           -1.3439     3.2527     0.2883 C.3     
  18 C18           -4.7151     0.6599     1.0011 C.3     
  19 C19           -2.7030     0.8796     2.4671 C.3     
  20 H20            2.5433     0.3628     0.1601 H       
  21 H21            4.5826     1.7804     0.0549 H       
  22 H22            4.3141     4.2347    -0.2159 H       
  23 H23            1.0462     5.8217    -0.8999 H       
  24 H24            2.9921     6.0826     1.4372 H       
  25 H25            1.9126     7.3644     0.8373 H       
  26 H26            1.2272     5.8952     1.5720 H       
  27 H27            4.0938     5.9624    -0.8020 H       
  28 H28            3.1137     5.6893    -2.2625 H       
  29 H29            3.0142     7.2442    -1.4020 H       
  30 H30           -2.9700     1.2505    -0.9498 H       
  31 H31           -2.2147    -0.0539     0.0034 H       
  32 H32           -4.0090     3.1433     0.3850 H       
  33 H33           -2.4790     4.5805     1.5479 H       
  34 H34           -1.8369     3.1427     2.3788 H       
  35 H35           -0.3638     3.6737     0.5127 H       
  36 H36           -1.7463     3.7148    -0.6131 H       
  37 H37           -4.5674    -0.4192     0.9587 H       
  38 H38           -5.3576     0.9057     1.8467 H       
  39 H39           -5.1844     0.9990     0.0776 H       
  40 H40           -1.7397     1.3751     2.5874 H       
  41 H41           -3.3461     1.1254     3.3122 H       
  42 H42           -2.5540    -0.1994     2.4256 H       
@<TRIPOS>BOND
   1    1    2 2
   2    1    3 1
   3    1   12 am
   4    3    4 ar
   5    3    8 ar
   6    4    5 ar
   7    4   20 1
   8    5    6 ar
   9    5   21 1
  10    6    7 ar
  11    6   22 1
  12    7    8 ar
  13    7    9 1
  14    9   10 1
  15    9   11 1
  16    9   23 1
  17   10   24 1
  18   10   25 1
  19   10   26 1
  20   11   27 1
  21   11   28 1
  22   11   29 1
  23   12   13 1
  24   12   17 1
  25   13   14 1
  26   13   30 1
  27   13   31 1
  28   14   15 1
  29   14   18 1
  30   14   19 1
  31   15   16 1
  32   15   32 1
  33   16   17 1
  34   16   33 1
  35   16   34 1
  36   17   35 1
  37   17   36 1
  38   18   37 1
  39   18   38 1
  40   18   39 1
  41   19   40 1
  42   19   41 1
  43   19   42 1

#	End of record

