#	Name: ASD01230826
#	Creating user name:	WinNT
#	Creation time:	15. 06. 2019 19:15

#	Modifying user name:	WinNT
#	Modification time:	15. 06. 2019 19:15

#	Program:	/corina/corina34_cracker 3.40 0067  02.08.2006

@<TRIPOS>MOLECULE
ASD01230826
  27   29    0    0    0
SMALL
NO_CHARGES


@<TRIPOS>ATOM
   1 C1            -0.0166     1.3761     0.0096 C.2     
   2 C2             0.0021    -0.0041     0.0020 C.2     
   3 C3            -1.2146    -0.6996     0.0078 C.2     
   4 C4            -2.3848    -0.0387     0.0100 C.2     
   5 N5            -2.4631     1.3330     0.0007 N.pl3   
   6 C6            -1.3192     2.0782     0.0320 C.2     
   7 C7            -3.8111     1.9054    -0.0496 C.3     
   8 C8            -3.8805     3.1908     0.7800 C.3     
   9 S9            -2.6248     4.3277     0.1126 S.o2    
  10 N10           -1.2643     3.3867     0.0823 N.am    
  11 C11            1.2445     2.1407     0.0017 C.2     
  12 O12           -2.8897     4.6274    -1.2510 O.2     
  13 O13           -2.3244     5.3534     1.0490 O.2     
  14 C14            2.1427     2.1518    -1.0056 C.2     
  15 C15            3.2492     2.9455    -0.7819 C.2     
  16 C16            3.2621     3.5801     0.3951 C.2     
  17 S17            1.8071     3.1850     1.3003 S.3     
  18 Cl18           4.5224     4.6402     0.9441 Cl      
  19 H19            0.9398    -0.5397    -0.0086 H       
  20 H20           -1.2118    -1.7796     0.0102 H       
  21 H21           -3.3017    -0.6094     0.0190 H       
  22 H22           -4.0675     2.1312    -1.0847 H       
  23 H23           -4.5237     1.1824     0.3473 H       
  24 H24           -4.8708     3.6374     0.6909 H       
  25 H25           -3.6639     2.9704     1.8253 H       
  26 H26            2.0065     1.5843    -1.9144 H       
  27 H27            4.0461     3.0463    -1.5039 H       
@<TRIPOS>BOND
   1    1    2 2
   2    1   11 1
   3    1    6 1
   4    2    3 1
   5    2   19 1
   6    3    4 2
   7    3   20 1
   8    4    5 1
   9    4   21 1
  10    5    6 1
  11    5    7 1
  12    6   10 2
  13    7    8 1
  14    7   22 1
  15    7   23 1
  16    8    9 1
  17    8   24 1
  18    8   25 1
  19    9   10 am
  20    9   12 2
  21    9   13 2
  22   11   14 2
  23   11   17 1
  24   14   15 1
  25   14   26 1
  26   15   16 2
  27   15   27 1
  28   16   17 1
  29   16   18 1

#	End of record

