#	Name: ASD06600001
#	Creating user name:	WinNT
#	Creation time:	15. 06. 2019 21:06

#	Modifying user name:	WinNT
#	Modification time:	15. 06. 2019 21:06

#	Program:	/corina/corina34_cracker 3.40 0067  02.08.2006

@<TRIPOS>MOLECULE
ASD06600001
 235  235    0    0    0
SMALL
NO_CHARGES


@<TRIPOS>ATOM
   1 C1            -0.4447     0.3815     2.1236 C.2     
   2 O2            -0.4833    -0.8252     2.2387 O.2     
   3 N3             1.9639     0.1178     2.2575 N.am    
   4 C4             0.8824     1.0955     2.1142 C.3     
   5 C5             1.0472     1.8482     0.7924 C.3     
   6 C6             2.3355     2.6727     0.8322 C.3     
   7 C7             2.4978     3.4141    -0.4697 C.2     
   8 O8             1.6682     3.2953    -1.3401 O.2     
   9 O9             3.5640     4.2065    -0.6624 O.3     
  10 C10           -3.8981     1.2196     1.2663 C.2     
  11 O11           -3.5789     2.2869     0.7868 O.2     
  12 N12           -1.5884     1.0834     1.9986 N.am    
  13 C13           -2.8783     0.3888     2.0016 C.3     
  14 C14           -3.3392     0.1754     3.4449 C.3     
  15 C15           -2.3686    -0.7699     4.1557 C.3     
  16 C16           -2.8295    -0.9833     5.5990 C.3     
  17 N17           -1.9002    -1.8885     6.2796 N.pl3   
  18 C18           -2.1116    -2.2292     7.5947 C.2     
  19 N19           -1.2848    -3.0346     8.2002 N.2     
  20 N20           -3.1951    -1.7205     8.2709 N.pl3   
  21 C21           -7.5371     1.2371     0.9199 C.2     
  22 O22           -7.6792     0.3977     1.7837 O.2     
  23 N23           -5.1648     0.7766     1.1414 N.am    
  24 C24           -6.1562     1.5843     0.4265 C.3     
  25 C25           -6.0630     1.2962    -1.0732 C.3     
  26 C26           -4.7250     1.7571    -1.5911 C.2     
  27 C27           -3.8331     1.0025    -2.2611 C.2     
  28 N28           -2.7635     1.8092    -2.5419 N.pl3   
  29 C29           -3.0392     3.0295    -2.0335 C.2     
  30 N30           -4.2161     2.9922    -1.4707 N.2     
  31 C31          -10.9675     1.8383    -0.1911 C.2     
  32 O32          -10.6024     2.3001    -1.2515 O.2     
  33 N33           -8.6142     1.8595     0.4013 N.am    
  34 C34           -9.9567     1.5220     0.8810 C.3     
  35 C35          -10.2708     2.3400     2.1352 C.3     
  36 C36           -9.3226     1.9284     3.2632 C.3     
  37 C37           -9.6366     2.7464     4.5175 C.3     
  38 N38           -8.7287     2.3522     5.5976 N.pl3   
  39 C39           -8.8228     2.9557     6.8293 C.2     
  40 N40           -8.0150     2.6051     7.7902 N.2     
  41 N41           -9.7689     3.9291     7.0474 N.pl3   
  42 C42          -14.6035     2.1656    -0.3793 C.2     
  43 O43          -14.7281     2.0942     0.8250 O.2     
  44 N44          -12.2771     1.6079     0.0284 N.am    
  45 C45          -13.2597     1.9153    -1.0139 C.3     
  46 C46          -13.3643     0.7341    -1.9806 C.3     
  47 C47          -12.0347     0.5584    -2.7169 C.3     
  48 C48          -12.1377    -0.6051    -3.6691 C.2     
  49 O49          -13.1727    -1.2321    -3.7508 O.2     
  50 N50          -11.0798    -0.9489    -4.4300 N.am    
  51 C51          -18.0626     2.4227    -1.5332 C.2     
  52 O52          -17.7761     2.0499    -2.6512 O.2     
  53 N53          -15.6667     2.4688    -1.1500 N.am    
  54 C54          -16.9730     2.7122    -0.5331 C.3     
  55 C55          -17.0632     4.1736    -0.0894 C.3     
  56 C56          -15.8842     4.5014     0.8291 C.3     
  57 O57          -17.0231     5.0234    -1.2375 O.3     
  58 C58          -21.6477     3.0854    -1.7991 C.2     
  59 O59          -21.6424     3.8110    -0.8273 O.2     
  60 N60          -19.3553     2.5782    -1.1853 N.am    
  61 C61          -20.4145     2.2968    -2.1575 C.3     
  62 C62          -20.7412     0.8022    -2.1375 C.3     
  63 C63          -19.5262     0.0081    -2.6214 C.3     
  64 C64          -19.8529    -1.4865    -2.6015 C.3     
  65 N65          -18.6896    -2.2468    -3.0648 N.pl3   
  66 C66          -18.7476    -3.6188    -3.1326 C.2     
  67 N67          -19.8377    -4.2429    -2.7846 N.2     
  68 N68          -17.6559    -4.3323    -3.5674 N.pl3   
  69 C69          -25.1734     3.0579    -2.7644 C.2     
  70 O70          -25.0521     2.0253    -3.3888 O.2     
  71 N71          -22.7565     2.9843    -2.5586 N.am    
  72 C72          -23.9554     3.7509    -2.2102 C.3     
  73 C73          -23.8530     5.1564    -2.8061 C.3     
  74 O74          -23.8603     5.0707    -4.2325 O.3     
  75 C75          -28.6845     3.9189    -3.3063 C.2     
  76 O76          -28.4996     5.0847    -3.0275 O.2     
  77 N77          -26.3976     3.5855    -2.5661 N.am    
  78 C78          -27.5817     2.9118    -3.1048 C.3     
  79 C79          -28.0474     1.8355    -2.1221 C.3     
  80 O80          -28.4830     2.4538    -0.9097 O.3     
  81 C81          -32.2824     3.8040    -3.9427 C.2     
  82 O82          -32.3499     2.6110    -4.1500 O.2     
  83 N83          -29.8763     3.5241    -3.7965 N.am    
  84 C84          -30.9484     4.5032    -3.9925 C.3     
  85 C85          -30.7780     5.1804    -5.3538 C.3     
  86 C86          -29.4326     5.9077    -5.3969 C.3     
  87 O87          -30.8187     4.1926    -6.3857 O.3     
  88 C88          -35.2195     3.8661    -5.1417 C.2     
  89 O89          -34.5584     4.3755    -6.0154 O.2     
  90 N90          -33.4005     4.5045    -3.6677 N.am    
  91 C91          -34.7088     3.8477    -3.7240 C.3     
  92 C92          -35.6923     4.5913    -2.8180 C.3     
  93 C93          -35.2390     4.4663    -1.3621 C.3     
  94 C94          -36.2076     5.1987    -0.4697 C.2     
  95 O95          -37.1625     5.7629    -0.9490 O.2     
  96 O96          -36.0095     5.2244     0.8576 O.3     
  97 O97          -36.4088     3.3165    -5.4339 O.3     
  98 C98            3.1513     0.4967     2.7703 C.2     
  99 O99            3.3245     1.6471     3.1132 O.2     
 100 C100          20.7746    -2.8706     8.1807 C.3     
 101 C101          19.6450    -1.8495     8.0311 C.3     
 102 C102          18.4159    -2.5333     7.4288 C.3     
 103 C103          17.2863    -1.5122     7.2792 C.3     
 104 C104          16.0572    -2.1959     6.6770 C.3     
 105 C105          14.9277    -1.1748     6.5274 C.3     
 106 C106          13.6986    -1.8585     5.9251 C.3     
 107 C107          12.5690    -0.8374     5.7755 C.3     
 108 C108          11.3399    -1.5212     5.1733 C.3     
 109 C109          10.2104    -0.5001     5.0236 C.3     
 110 C110           8.9812    -1.1838     4.4214 C.3     
 111 C111           7.8517    -0.1627     4.2718 C.3     
 112 C112           6.6226    -0.8464     3.6696 C.3     
 113 C113           5.4930     0.1747     3.5199 C.3     
 114 C114           4.2639    -0.5091     2.9177 C.3     
 115 H115           1.8255    -0.8023     1.9833 H       
 116 H116           0.9202     1.8031     2.9425 H       
 117 H117           1.0985     1.1334    -0.0288 H       
 118 H118           0.1955     2.5120     0.6437 H       
 119 H119           2.2841     3.3875     1.6535 H       
 120 H120           3.1872     2.0089     0.9810 H       
 121 H121           3.6247     4.6615    -1.5135 H       
 122 H122          -1.5576     2.0486     1.9065 H       
 123 H123          -2.7720    -0.5770     1.5076 H       
 124 H124          -3.3601     1.1331     3.9650 H       
 125 H125          -4.3381    -0.2609     3.4465 H       
 126 H126          -2.3477    -1.7276     3.6356 H       
 127 H127          -1.3697    -0.3337     4.1541 H       
 128 H128          -2.8504    -0.0256     6.1191 H       
 129 H129          -3.8284    -1.4196     5.6006 H       
 130 H130          -1.1358    -2.2474     5.8025 H       
 131 H131          -1.4340    -3.2750     9.1281 H       
 132 H132          -3.8105    -1.1212     7.8203 H       
 133 H133          -3.3443    -1.9610     9.1988 H       
 134 H134          -5.4201    -0.0770     1.5249 H       
 135 H135          -5.9613     2.6416     0.6062 H       
 136 H136          -6.1697     0.2251    -1.2448 H       
 137 H137          -6.8578     1.8288    -1.5955 H       
 138 H138          -3.9409    -0.0390    -2.5256 H       
 139 H139          -1.9580     1.5523    -3.0174 H       
 140 H140          -2.3944     3.8942    -2.0873 H       
 141 H141          -8.5006     2.5309    -0.2895 H       
 142 H142         -10.0008     0.4594     1.1198 H       
 143 H143         -10.1401     3.4004     1.9196 H       
 144 H144         -11.3007     2.1556     2.4409 H       
 145 H145          -9.4532     0.8679     3.4789 H       
 146 H146          -8.2927     2.1128     2.9576 H       
 147 H147          -9.5060     3.8068     4.3018 H       
 148 H148         -10.6665     2.5619     4.8231 H       
 149 H149          -8.0612     1.6655     5.4437 H       
 150 H150          -8.0814     3.0308     8.6593 H       
 151 H151         -10.3701     4.1901     6.3323 H       
 152 H152          -9.8353     4.3549     7.9164 H       
 153 H153         -12.5691     1.2385     0.8764 H       
 154 H154         -12.9443     2.8046    -1.5596 H       
 155 H155         -13.5929    -0.1735    -1.4219 H       
 156 H156         -14.1575     0.9253    -2.7034 H       
 157 H157         -11.8061     1.4660    -3.2756 H       
 158 H158         -11.2416     0.3672    -1.9941 H       
 159 H159         -10.2520    -0.4475    -4.3647 H       
 160 H160         -11.1461    -1.6979    -5.0429 H       
 161 H161         -15.5670     2.5260    -2.1132 H       
 162 H162         -17.0927     2.0614     0.3331 H       
 163 H163         -17.9979     4.3331     0.4483 H       
 164 H164         -15.9485     5.5425     1.1452 H       
 165 H165         -15.9148     3.8532     1.7049 H       
 166 H166         -14.9496     4.3419     0.2915 H       
 167 H167         -17.0761     5.9666    -1.0308 H       
 168 H168         -19.5844     2.8764    -0.2911 H       
 169 H169         -20.0779     2.5819    -3.1542 H       
 170 H170         -20.9923     0.4987    -1.1212 H       
 171 H171         -21.5884     0.6067    -2.7949 H       
 172 H172         -19.2751     0.3116    -3.6377 H       
 173 H173         -18.6791     0.2037    -1.9640 H       
 174 H174         -20.1040    -1.7899    -1.5851 H       
 175 H175         -20.7001    -1.6820    -3.2588 H       
 176 H176         -17.8783    -1.7823    -3.3237 H       
 177 H177         -19.8787    -5.2109    -2.8325 H       
 178 H178         -16.8447    -3.8678    -3.8264 H       
 179 H179         -17.6969    -5.3003    -3.6153 H       
 180 H180         -22.7608     2.4040    -3.3358 H       
 181 H181         -24.0392     3.8213    -1.1257 H       
 182 H182         -24.7014     5.7546    -2.4737 H       
 183 H183         -22.9261     5.6248    -2.4749 H       
 184 H184         -23.7980     5.9266    -4.6782 H       
 185 H185         -26.4947     4.4114    -2.0666 H       
 186 H186         -27.3334     2.4489    -4.0598 H       
 187 H187         -28.8728     1.2752    -2.5612 H       
 188 H188         -27.2213     1.1574    -1.9077 H       
 189 H189         -28.7928     1.8296    -0.2392 H       
 190 H190         -30.0242     2.5918    -4.0195 H       
 191 H191         -30.9025     5.2549    -3.2045 H       
 192 H192         -31.5841     5.8981    -5.5060 H       
 193 H193         -28.6238     5.1784    -5.3518 H       
 194 H194         -29.3571     6.4774    -6.3230 H       
 195 H195         -29.3586     6.5854    -4.5464 H       
 196 H196         -31.6450     3.6912    -6.4178 H       
 197 H197         -33.3390     5.4435    -3.4324 H       
 198 H198         -34.6123     2.8160    -3.3860 H       
 199 H199         -35.7218     5.6437    -3.1003 H       
 200 H200         -36.6863     4.1578    -2.9276 H       
 201 H201         -35.2095     3.4139    -1.0798 H       
 202 H202         -34.2449     4.8998    -1.2525 H       
 203 H203         -36.6576     5.7068     1.3890 H       
 204 H204         -36.6941     3.3525    -6.3571 H       
 205 H205          20.4499    -3.6780     8.8370 H       
 206 H206          21.0283    -3.2778     7.2020 H       
 207 H207          21.6502    -2.3835     8.6097 H       
 208 H208          19.3913    -1.4424     9.0098 H       
 209 H209          19.9697    -1.0421     7.3747 H       
 210 H210          18.6696    -2.9404     6.4501 H       
 211 H211          18.0912    -3.3407     8.0852 H       
 212 H212          17.0326    -1.1050     8.2580 H       
 213 H213          17.6110    -0.7047     6.6229 H       
 214 H214          16.3110    -2.6030     5.6982 H       
 215 H215          15.7325    -3.0033     7.3333 H       
 216 H216          14.6739    -0.7676     7.5061 H       
 217 H217          15.2524    -0.3674     5.8710 H       
 218 H218          13.9523    -2.2657     4.9464 H       
 219 H219          13.3739    -2.6659     6.5815 H       
 220 H220          12.3153    -0.4303     6.7542 H       
 221 H221          12.8937    -0.0300     5.1192 H       
 222 H222          11.5936    -1.9283     4.1945 H       
 223 H223          11.0152    -2.3286     5.8296 H       
 224 H224           9.9566    -0.0929     6.0024 H       
 225 H225          10.5350     0.3073     4.3673 H       
 226 H226           9.2350    -1.5909     3.4427 H       
 227 H227           8.6565    -1.9912     5.0777 H       
 228 H228           7.5979     0.2444     5.2505 H       
 229 H229           8.1764     0.6447     3.6155 H       
 230 H230           6.8763    -1.2536     2.6908 H       
 231 H231           6.2979    -1.6538     4.3259 H       
 232 H232           5.2393     0.5818     4.4987 H       
 233 H233           5.8177     0.9821     2.8636 H       
 234 H234           3.9392    -1.3165     3.5740 H       
 235 H235           4.5177    -0.9162     1.9390 H       
@<TRIPOS>BOND
   1    1    2 2
   2    1    4 1
   3    1   12 am
   4    3   98 am
   5    3    4 1
   6    3  115 1
   7    4    5 1
   8    4  116 1
   9    5    6 1
  10    5  117 1
  11    5  118 1
  12    6    7 1
  13    6  119 1
  14    6  120 1
  15    7    8 2
  16    7    9 1
  17    9  121 1
  18   10   11 2
  19   10   13 1
  20   10   23 am
  21   12   13 1
  22   12  122 1
  23   13   14 1
  24   13  123 1
  25   14   15 1
  26   14  124 1
  27   14  125 1
  28   15   16 1
  29   15  126 1
  30   15  127 1
  31   16   17 1
  32   16  128 1
  33   16  129 1
  34   17   18 1
  35   17  130 1
  36   18   19 2
  37   18   20 1
  38   19  131 1
  39   20  132 1
  40   20  133 1
  41   21   22 2
  42   21   24 1
  43   21   33 am
  44   23   24 1
  45   23  134 1
  46   24   25 1
  47   24  135 1
  48   25   26 1
  49   25  136 1
  50   25  137 1
  51   26   27 2
  52   26   30 1
  53   27   28 1
  54   27  138 1
  55   28   29 1
  56   28  139 1
  57   29   30 2
  58   29  140 1
  59   31   32 2
  60   31   34 1
  61   31   44 am
  62   33   34 1
  63   33  141 1
  64   34   35 1
  65   34  142 1
  66   35   36 1
  67   35  143 1
  68   35  144 1
  69   36   37 1
  70   36  145 1
  71   36  146 1
  72   37   38 1
  73   37  147 1
  74   37  148 1
  75   38   39 1
  76   38  149 1
  77   39   40 2
  78   39   41 1
  79   40  150 1
  80   41  151 1
  81   41  152 1
  82   42   43 2
  83   42   45 1
  84   42   53 am
  85   44   45 1
  86   44  153 1
  87   45   46 1
  88   45  154 1
  89   46   47 1
  90   46  155 1
  91   46  156 1
  92   47   48 1
  93   47  157 1
  94   47  158 1
  95   48   49 2
  96   48   50 am
  97   50  159 1
  98   50  160 1
  99   51   52 2
 100   51   54 1
 101   51   60 am
 102   53   54 1
 103   53  161 1
 104   54   55 1
 105   54  162 1
 106   55   56 1
 107   55   57 1
 108   55  163 1
 109   56  164 1
 110   56  165 1
 111   56  166 1
 112   57  167 1
 113   58   59 2
 114   58   61 1
 115   58   71 am
 116   60   61 1
 117   60  168 1
 118   61   62 1
 119   61  169 1
 120   62   63 1
 121   62  170 1
 122   62  171 1
 123   63   64 1
 124   63  172 1
 125   63  173 1
 126   64   65 1
 127   64  174 1
 128   64  175 1
 129   65   66 1
 130   65  176 1
 131   66   67 2
 132   66   68 1
 133   67  177 1
 134   68  178 1
 135   68  179 1
 136   69   70 2
 137   69   72 1
 138   69   77 am
 139   71   72 1
 140   71  180 1
 141   72   73 1
 142   72  181 1
 143   73   74 1
 144   73  182 1
 145   73  183 1
 146   74  184 1
 147   75   76 2
 148   75   78 1
 149   75   83 am
 150   77   78 1
 151   77  185 1
 152   78   79 1
 153   78  186 1
 154   79   80 1
 155   79  187 1
 156   79  188 1
 157   80  189 1
 158   81   82 2
 159   81   84 1
 160   81   90 am
 161   83   84 1
 162   83  190 1
 163   84   85 1
 164   84  191 1
 165   85   86 1
 166   85   87 1
 167   85  192 1
 168   86  193 1
 169   86  194 1
 170   86  195 1
 171   87  196 1
 172   88   89 2
 173   88   91 1
 174   88   97 1
 175   90   91 1
 176   90  197 1
 177   91   92 1
 178   91  198 1
 179   92   93 1
 180   92  199 1
 181   92  200 1
 182   93   94 1
 183   93  201 1
 184   93  202 1
 185   94   95 2
 186   94   96 1
 187   96  203 1
 188   97  204 1
 189   98   99 2
 190   98  114 1
 191  100  101 1
 192  100  205 1
 193  100  206 1
 194  100  207 1
 195  101  102 1
 196  101  208 1
 197  101  209 1
 198  102  103 1
 199  102  210 1
 200  102  211 1
 201  103  104 1
 202  103  212 1
 203  103  213 1
 204  104  105 1
 205  104  214 1
 206  104  215 1
 207  105  106 1
 208  105  216 1
 209  105  217 1
 210  106  107 1
 211  106  218 1
 212  106  219 1
 213  107  108 1
 214  107  220 1
 215  107  221 1
 216  108  109 1
 217  108  222 1
 218  108  223 1
 219  109  110 1
 220  109  224 1
 221  109  225 1
 222  110  111 1
 223  110  226 1
 224  110  227 1
 225  111  112 1
 226  111  228 1
 227  111  229 1
 228  112  113 1
 229  112  230 1
 230  112  231 1
 231  113  114 1
 232  113  232 1
 233  113  233 1
 234  114  234 1
 235  114  235 1

#	End of record

