#	Name: ASD01915447
#	Creating user name:	WinNT
#	Creation time:	15. 06. 2019 20:05

#	Modifying user name:	WinNT
#	Modification time:	15. 06. 2019 20:05

#	Program:	/corina/corina34_cracker 3.40 0067  02.08.2006

@<TRIPOS>MOLECULE
ASD01915447
  45   49    0    0    0
SMALL
NO_CHARGES


@<TRIPOS>ATOM
   1 N1            -0.0482     1.4006     0.3974 N.pl3   
   2 N2            -0.0380     0.0061     0.4915 N.2     
   3 C3             1.1966    -0.4319     0.5359 C.2     
   4 C4             2.0793     0.7375     0.4678 C.ar    
   5 C5             1.2386     1.8667     0.3815 C.ar    
   6 N6             1.7589     3.0853     0.3054 N.ar    
   7 C7             3.4642     0.9058     0.4727 C.ar    
   8 C8             3.9681     2.2036     0.3910 C.ar    
   9 C9             3.0648     3.2855     0.3073 C.ar    
  10 C10            5.3812     2.4356     0.3926 C.1     
  11 N11            6.5022     2.6197     0.3939 N.1     
  12 C12            3.5900     4.6677     0.2201 C.ar    
  13 C13            2.9225     5.6233    -0.5459 C.ar    
  14 C14            3.4167     6.9093    -0.6232 C.ar    
  15 C15            4.5719     7.2514     0.0567 C.ar    
  16 C16            5.2387     6.3079     0.8177 C.ar    
  17 C17            4.7507     5.0204     0.9082 C.ar    
  18 C18            1.6222    -1.8481     0.6364 C.ar    
  19 C19            1.0875    -2.6708     1.6269 C.ar    
  20 C20            1.4880    -3.9894     1.7156 C.ar    
  21 C21            2.4186    -4.4941     0.8230 C.ar    
  22 C22            2.9521    -3.6818    -0.1609 C.ar    
  23 C23            2.5544    -2.3640    -0.2626 C.ar    
  24 Cl24           0.8241    -5.0158     2.9483 Cl      
  25 C25            4.3890    -0.2805     0.5643 C.3     
  26 C26            5.4503    -0.3215    -0.5478 C.3     
  27 C27            6.4445    -0.7927     0.5266 C.3     
  28 C28            5.5483    -0.0828     1.5551 C.3     
  29 F29            6.4842    -2.1824     0.6825 F       
  30 F30            7.7163    -0.2235     0.4015 F       
  31 H31           -0.8443     1.9525     0.3470 H       
  32 H32            2.0210     5.3571    -1.0776 H       
  33 H33            2.9007     7.6501    -1.2160 H       
  34 H34            4.9551     8.2592    -0.0072 H       
  35 H35            6.1403     6.5809     1.3459 H       
  36 H36            5.2692     4.2860     1.5067 H       
  37 H37            0.3619    -2.2776     2.3235 H       
  38 H38            2.7292    -5.5259     0.8957 H       
  39 H39            3.6778    -4.0807    -0.8541 H       
  40 H40            2.9684    -1.7321    -1.0346 H       
  41 H41            3.8570    -1.2229     0.6950 H       
  42 H42            5.2500    -1.0692    -1.3152 H       
  43 H43            5.6870     0.6586    -0.9619 H       
  44 H44            5.8117     0.9625     1.7160 H       
  45 H45            5.4271    -0.6378     2.4854 H       
@<TRIPOS>BOND
   1    1    2 1
   2    1    5 1
   3    1   31 1
   4    2    3 2
   5    3    4 1
   6    3   18 1
   7    4    7 ar
   8    4    5 ar
   9    5    6 ar
  10    6    9 ar
  11    7    8 ar
  12    7   25 1
  13    8    9 ar
  14    8   10 1
  15    9   12 1
  16   10   11 3
  17   12   13 ar
  18   12   17 ar
  19   13   14 ar
  20   13   32 1
  21   14   15 ar
  22   14   33 1
  23   15   16 ar
  24   15   34 1
  25   16   17 ar
  26   16   35 1
  27   17   36 1
  28   18   19 ar
  29   18   23 ar
  30   19   20 ar
  31   19   37 1
  32   20   21 ar
  33   20   24 1
  34   21   22 ar
  35   21   38 1
  36   22   23 ar
  37   22   39 1
  38   23   40 1
  39   25   26 1
  40   25   28 1
  41   25   41 1
  42   26   27 1
  43   26   42 1
  44   26   43 1
  45   27   29 1
  46   27   30 1
  47   27   28 1
  48   28   44 1
  49   28   45 1

#	End of record

