#	Name: ASD01903059
#	Creating user name:	WinNT
#	Creation time:	15. 06. 2019 19:54

#	Modifying user name:	WinNT
#	Modification time:	15. 06. 2019 19:54

#	Program:	/corina/corina34_cracker 3.40 0067  02.08.2006

@<TRIPOS>MOLECULE
ASD01903059
  32   34    0    0    0
SMALL
NO_CHARGES


@<TRIPOS>ATOM
   1 C1            -0.0005     1.3532    -0.0562 C.2     
   2 N2             0.0429     0.0561    -0.0684 N.2     
   3 C3            -1.1158    -0.5846    -0.0067 C.2     
   4 C4            -2.2050     0.1980     0.0617 C.2     
   5 S5            -1.6777     1.8795     0.0517 S.3     
   6 C6            -1.2036    -2.0675    -0.0133 C.2     
   7 N7             1.1017     2.1933    -0.1131 N.pl3   
   8 C8            -0.5515    -2.9094    -0.8653 C.2     
   9 N9            -0.9007    -4.1717    -0.5385 N.pl3   
  10 N10           -1.7902    -4.1132     0.5413 N.2     
  11 C11           -1.9705    -2.8592     0.8629 C.2     
  12 C12            0.9230     3.5700    -0.2073 C.ar    
  13 N13           -0.2964     4.0801    -0.1308 N.ar    
  14 C14           -0.5094     5.3796    -0.2150 C.ar    
  15 C15            0.5403     6.2594    -0.3871 C.ar    
  16 C16            1.8353     5.7649    -0.4721 C.ar    
  17 C17            2.0278     4.3987    -0.3752 C.ar    
  18 C18            0.3882    -2.5039    -1.9714 C.3     
  19 C19           -3.6322    -0.2796     0.1392 C.3     
  20 H20            1.9971     1.8211    -0.0873 H       
  21 H21           -0.5895    -4.9795    -0.9761 H       
  22 H22           -2.6031    -2.4935     1.6582 H       
  23 H23           -1.5181     5.7598    -0.1487 H       
  24 H24            0.3564     7.3215    -0.4553 H       
  25 H25            2.6735     6.4325    -0.6071 H       
  26 H26            3.0216     3.9803    -0.4368 H       
  27 H27            1.4059    -2.4552    -1.5840 H       
  28 H28            0.3404    -3.2376    -2.7760 H       
  29 H29            0.0980    -1.5254    -2.3542 H       
  30 H30           -3.8885    -0.4913     1.1773 H       
  31 H31           -4.2956     0.4935    -0.2484 H       
  32 H32           -3.7447    -1.1864    -0.4551 H       
@<TRIPOS>BOND
   1    1    2 2
   2    1    7 1
   3    1    5 1
   4    2    3 1
   5    3    4 2
   6    3    6 1
   7    4    5 1
   8    4   19 1
   9    6    8 2
  10    6   11 1
  11    7   12 1
  12    7   20 1
  13    8    9 1
  14    8   18 1
  15    9   10 1
  16    9   21 1
  17   10   11 2
  18   11   22 1
  19   12   13 ar
  20   12   17 ar
  21   13   14 ar
  22   14   15 ar
  23   14   23 1
  24   15   16 ar
  25   15   24 1
  26   16   17 ar
  27   16   25 1
  28   17   26 1
  29   18   27 1
  30   18   28 1
  31   18   29 1
  32   19   30 1
  33   19   31 1
  34   19   32 1

#	End of record

