#	Name: ASD01915717
#	Creating user name:	WinNT
#	Creation time:	15. 06. 2019 20:06

#	Modifying user name:	WinNT
#	Modification time:	15. 06. 2019 20:06

#	Program:	/corina/corina34_cracker 3.40 0067  02.08.2006

@<TRIPOS>MOLECULE
ASD01915717
  43   46    0    0    0
SMALL
NO_CHARGES


@<TRIPOS>ATOM
   1 C1            -0.0042     1.4687     0.2350 C.2     
   2 N2             0.0663     0.1193    -0.0302 N.pl3   
   3 C3            -1.1427    -0.6635    -0.3131 C.3     
   4 C4            -2.3279    -0.0486     0.4294 C.3     
   5 N5            -2.4044     1.3988     0.2637 N.am    
   6 C6            -1.2935     2.1743     0.2864 C.2     
   7 C7             1.2763     1.9061     0.4261 C.2     
   8 C8             2.0759     0.7653     0.2738 C.2     
   9 N9             1.2866    -0.2501     0.0108 N.2     
  10 C10            3.5775     0.7136     0.3902 C.3     
  11 O11            4.0778     2.0196     0.6838 O.3     
  12 C12            5.4214     2.1479     0.8217 C.ar    
  13 O13           -1.3591     3.3875     0.3463 O.2     
  14 N14            6.1985     1.0864     0.6827 N.ar    
  15 C15            5.9682     3.3934     1.1017 C.ar    
  16 C16            7.3405     3.5108     1.2399 C.ar    
  17 C17            8.1204     2.3723     1.0923 C.ar    
  18 C18            7.5093     1.1669     0.8086 C.ar    
  19 C19           -3.6531     1.9997     0.0768 C.ar    
  20 C20           -4.5854     2.0024     1.1064 C.ar    
  21 C21           -3.9618     2.6002    -1.1370 C.ar    
  22 C22           -5.1960     3.1928    -1.3184 C.ar    
  23 C23           -6.1239     3.1891    -0.2931 C.ar    
  24 C24           -5.8178     2.5967     0.9184 C.ar    
  25 C25           -7.4693     3.8375    -0.4943 C.3     
  26 H26           -1.3401    -0.6535    -1.3850 H       
  27 H27           -0.9974    -1.6908     0.0210 H       
  28 H28           -3.2487    -0.4952     0.0542 H       
  29 H29           -2.2353    -0.2771     1.4912 H       
  30 H30            1.6014     2.9122     0.6462 H       
  31 H31            3.8564     0.0291     1.1914 H       
  32 H32            4.0031     0.3645    -0.5506 H       
  33 H33            5.3313     4.2588     1.2098 H       
  34 H34            7.7939     4.4666     1.4573 H       
  35 H35            9.1941     2.4294     1.1937 H       
  36 H36            8.1116     0.2780     0.6928 H       
  37 H37           -4.3470     1.5399     2.0527 H       
  38 H38           -3.2373     2.6040    -1.9380 H       
  39 H39           -5.4366     3.6599    -2.2620 H       
  40 H40           -6.5447     2.5955     1.7172 H       
  41 H41           -8.1715     3.1027    -0.8880 H       
  42 H42           -7.8364     4.2163     0.4596 H       
  43 H43           -7.3730     4.6626    -1.2000 H       
@<TRIPOS>BOND
   1    1    2 1
   2    1    7 2
   3    1    6 1
   4    2    3 1
   5    2    9 1
   6    3    4 1
   7    3   26 1
   8    3   27 1
   9    4    5 1
  10    4   28 1
  11    4   29 1
  12    5    6 am
  13    5   19 1
  14    6   13 2
  15    7    8 1
  16    7   30 1
  17    8    9 2
  18    8   10 1
  19   10   11 1
  20   10   31 1
  21   10   32 1
  22   11   12 1
  23   12   14 ar
  24   12   15 ar
  25   14   18 ar
  26   15   16 ar
  27   15   33 1
  28   16   17 ar
  29   16   34 1
  30   17   18 ar
  31   17   35 1
  32   18   36 1
  33   19   20 ar
  34   19   21 ar
  35   20   24 ar
  36   20   37 1
  37   21   22 ar
  38   21   38 1
  39   22   23 ar
  40   22   39 1
  41   23   24 ar
  42   23   25 1
  43   24   40 1
  44   25   41 1
  45   25   42 1
  46   25   43 1

#	End of record

