#	Name: ASD01915926
#	Creating user name:	WinNT
#	Creation time:	15. 06. 2019 20:06

#	Modifying user name:	WinNT
#	Modification time:	15. 06. 2019 20:06

#	Program:	/corina/corina34_cracker 3.40 0067  02.08.2006

@<TRIPOS>MOLECULE
ASD01915926
  43   46    0    0    0
SMALL
NO_CHARGES


@<TRIPOS>ATOM
   1 C1            -0.0027     1.4784     0.2373 C.2     
   2 C2             0.0709     0.1237    -0.0267 C.2     
   3 C3            -1.2000    -0.6631    -0.3026 C.3     
   4 C4            -2.3564    -0.0097     0.4516 C.3     
   5 N5            -2.4009     1.4360     0.2671 N.am    
   6 C6            -1.2794     2.1930     0.2819 C.2     
   7 O7            -1.3297     3.4085     0.3296 O.2     
   8 S8             1.6187     2.0849     0.4946 S.3     
   9 C9             2.2544     0.5166     0.2430 C.2     
  10 N10            1.2984    -0.3293    -0.0068 N.2     
  11 C11            4.4803     1.2624     0.5842 C.3     
  12 C12            5.8881     0.7250     0.6019 C.ar    
  13 C13            6.6359     0.7084    -0.5604 C.ar    
  14 C14            6.4330     0.2541     1.7817 C.ar    
  15 C15            7.7265    -0.2391     1.7978 C.ar    
  16 C16            8.4729    -0.2601     0.6315 C.ar    
  17 C17            7.9277     0.2156    -0.5457 C.ar    
  18 O18            3.5686     0.2004     0.2959 O.3     
  19 C19           -3.6377     2.0578     0.0687 C.ar    
  20 F20            8.2603    -0.6992     2.9504 F       
  21 C21           -4.5720     2.0922     1.0958 C.ar    
  22 C22           -5.7925     2.7071     0.8966 C.ar    
  23 C23           -6.0850     3.2876    -0.3239 C.ar    
  24 C24           -5.1569     3.2550    -1.3486 C.ar    
  25 C25           -3.9322     2.6472    -1.1540 C.ar    
  26 C26           -7.4182     3.9568    -0.5381 C.3     
  27 F27           -7.3250     5.3065    -0.1820 F       
  28 F28           -7.7806     3.8538    -1.8854 F       
  29 F29           -8.3866     3.3312     0.2545 F       
  30 H30           -1.4101    -0.6546    -1.3721 H       
  31 H31           -1.0750    -1.6906     0.0391 H       
  32 H32           -3.2942    -0.4388     0.0987 H       
  33 H33           -2.2505    -0.2260     1.5147 H       
  34 H34            4.2427     1.6910     1.5578 H       
  35 H35            4.3951     2.0326    -0.1824 H       
  36 H36            6.2108     1.0803    -1.4809 H       
  37 H37            5.8501     0.2713     2.6907 H       
  38 H38            9.4820    -0.6447     0.6429 H       
  39 H39            8.5095     0.1990    -1.4554 H       
  40 H40           -4.3445     1.6384     2.0491 H       
  41 H41           -6.5195     2.7342     1.6948 H       
  42 H42           -5.3885     3.7090    -2.3008 H       
  43 H43           -3.2078     2.6221    -1.9546 H       
@<TRIPOS>BOND
   1    1    2 2
   2    1    8 1
   3    1    6 1
   4    2    3 1
   5    2   10 1
   6    3    4 1
   7    3   30 1
   8    3   31 1
   9    4    5 1
  10    4   32 1
  11    4   33 1
  12    5    6 am
  13    5   19 1
  14    6    7 2
  15    8    9 1
  16    9   10 2
  17    9   18 1
  18   11   12 1
  19   11   18 1
  20   11   34 1
  21   11   35 1
  22   12   13 ar
  23   12   14 ar
  24   13   17 ar
  25   13   36 1
  26   14   15 ar
  27   14   37 1
  28   15   16 ar
  29   15   20 1
  30   16   17 ar
  31   16   38 1
  32   17   39 1
  33   19   21 ar
  34   19   25 ar
  35   21   22 ar
  36   21   40 1
  37   22   23 ar
  38   22   41 1
  39   23   24 ar
  40   23   26 1
  41   24   25 ar
  42   24   42 1
  43   25   43 1
  44   26   27 1
  45   26   28 1
  46   26   29 1

#	End of record

