#	Name: ASD01915000
#	Creating user name:	WinNT
#	Creation time:	15. 06. 2019 20:04

#	Modifying user name:	WinNT
#	Modification time:	15. 06. 2019 20:04

#	Program:	/corina/corina34_cracker 3.40 0067  02.08.2006

@<TRIPOS>MOLECULE
ASD01915000
  53   56    0    0    0
SMALL
NO_CHARGES


@<TRIPOS>ATOM
   1 N1            -0.0159     1.3204     0.0093 N.ar    
   2 C2             0.0021    -0.0041     0.0020 C.ar    
   3 C3             1.2020    -0.7088    -0.0127 C.ar    
   4 C4             2.3937    -0.0101    -0.0195 C.ar    
   5 C5             2.3364     1.3866    -0.0115 C.ar    
   6 C6             3.5641     2.2045    -0.0170 C.2     
   7 N7             3.4902     3.5004     0.3487 N.am    
   8 C8             2.2313     4.0845     0.8036 C.3     
   9 C9             1.0510     3.5325     0.0080 C.3     
  10 C10            1.0948     2.0262     0.0025 C.ar    
  11 O11            4.6279     1.7171    -0.3472 O.2     
  12 C12            4.6923     4.3357     0.2891 C.3     
  13 C13            4.7884     4.9816    -1.0690 C.ar    
  14 C14            4.2022     6.2129    -1.2908 C.ar    
  15 C15            4.2910     6.8069    -2.5412 C.ar    
  16 C16            4.9687     6.1625    -3.5662 C.ar    
  17 C17            5.5530     4.9317    -3.3394 C.ar    
  18 C18            5.4678     4.3442    -2.0904 C.ar    
  19 C19            5.0667     6.8047    -4.9260 C.3     
  20 F20            5.7915     5.9710    -5.7843 F       
  21 F21            3.7815     7.0017    -5.4424 F       
  22 F22            5.7181     8.0377    -4.8135 F       
  23 O23            3.7149     8.0178    -2.7620 O.3     
  24 C24            3.0333     8.6224    -1.6610 C.3     
  25 O25           -1.1693    -0.6852     0.0095 O.3     
  26 C26           -2.3700     0.0894     0.0251 C.3     
  27 C27           -3.5623    -0.8323     0.0315 C.ar    
  28 C28           -4.0975    -1.2612     1.2315 C.ar    
  29 C29           -5.1930    -2.1075     1.2371 C.ar    
  30 C30           -5.7514    -2.5234     0.0400 C.ar    
  31 C31           -5.2147    -2.0933    -1.1584 C.ar    
  32 C32           -4.1238    -1.2438    -1.1626 C.ar    
  33 F33           -5.7166    -2.5278     2.4094 F       
  34 H34            1.2016    -1.7888    -0.0185 H       
  35 H35            3.3416    -0.5276    -0.0302 H       
  36 H36            2.0905     3.8532     1.8594 H       
  37 H37            2.2728     5.1664     0.6777 H       
  38 H38            0.1191     3.8658     0.4647 H       
  39 H39            1.1018     3.8998    -1.0169 H       
  40 H40            4.6361     5.1085     1.0558 H       
  41 H41            5.5733     3.7172     0.4605 H       
  42 H42            3.6750     6.7124    -0.4915 H       
  43 H43            6.0803     4.4295    -4.1370 H       
  44 H44            5.9295     3.3839    -1.9137 H       
  45 H45            2.6208     9.5822    -1.9719 H       
  46 H46            2.2253     7.9694    -1.3311 H       
  47 H47            3.7339     8.7766    -0.8404 H       
  48 H48           -2.3883     0.7134     0.9187 H       
  49 H49           -2.4053     0.7229    -0.8612 H       
  50 H50           -3.6609    -0.9366     2.1645 H       
  51 H51           -6.6059    -3.1839     0.0432 H       
  52 H52           -5.6501    -2.4175    -2.0921 H       
  53 H53           -3.7077    -0.9046    -2.0998 H       
@<TRIPOS>BOND
   1    1    2 ar
   2    1   10 ar
   3    2    3 ar
   4    2   25 1
   5    3    4 ar
   6    3   34 1
   7    4    5 ar
   8    4   35 1
   9    5    6 1
  10    5   10 ar
  11    6    7 am
  12    6   11 2
  13    7    8 1
  14    7   12 1
  15    8    9 1
  16    8   36 1
  17    8   37 1
  18    9   10 1
  19    9   38 1
  20    9   39 1
  21   12   13 1
  22   12   40 1
  23   12   41 1
  24   13   14 ar
  25   13   18 ar
  26   14   15 ar
  27   14   42 1
  28   15   16 ar
  29   15   23 1
  30   16   17 ar
  31   16   19 1
  32   17   18 ar
  33   17   43 1
  34   18   44 1
  35   19   20 1
  36   19   21 1
  37   19   22 1
  38   23   24 1
  39   24   45 1
  40   24   46 1
  41   24   47 1
  42   25   26 1
  43   26   27 1
  44   26   48 1
  45   26   49 1
  46   27   28 ar
  47   27   32 ar
  48   28   29 ar
  49   28   50 1
  50   29   30 ar
  51   29   33 1
  52   30   31 ar
  53   30   51 1
  54   31   32 ar
  55   31   52 1
  56   32   53 1

#	End of record

