#	Name: ASD03240090
#	Creating user name:	WinNT
#	Creation time:	15. 06. 2019 20:34

#	Modifying user name:	WinNT
#	Modification time:	15. 06. 2019 20:34

#	Program:	/corina/corina34_cracker 3.40 0067  02.08.2006

@<TRIPOS>MOLECULE
ASD03240090
  70   74    0    0    0
SMALL
NO_CHARGES


@<TRIPOS>ATOM
   1 C1            -0.0172     1.4161     0.0098 C.ar    
   2 C2             0.0021    -0.0041     0.0020 C.ar    
   3 C3             1.1944     2.1238     0.0021 C.ar    
   4 C4             2.3741     1.3943    -0.0132 C.ar    
   5 C5             2.3168    -0.0170    -0.0203 C.ar    
   6 N6             1.1632    -0.6586    -0.0127 N.ar    
   7 C7             3.5780    -0.7936    -0.0370 C.ar    
   8 C8             3.6832     2.0897    -0.0224 C.ar    
   9 C9             3.9287     3.1071    -0.9434 C.ar    
  10 C10            5.1491     3.7512    -0.9470 C.ar    
  11 C11            6.1280     3.3890    -0.0391 C.ar    
  12 C12            5.8903     2.3799     0.8768 C.ar    
  13 C13            4.6717     1.7327     0.8936 C.ar    
  14 C14            3.6631    -2.0058     0.6475 C.ar    
  15 C15            4.8407    -2.7246     0.6281 C.ar    
  16 C16            5.9358    -2.2450    -0.0680 C.ar    
  17 C17            5.8577    -1.0432    -0.7489 C.ar    
  18 C18            4.6836    -0.3183    -0.7421 C.ar    
  19 C19            7.2193    -3.0345    -0.0842 C.3     
  20 N20            7.2094    -3.9619    -1.2235 N.3     
  21 C21            9.6907    -6.5233    -2.5181 C.3     
  22 C22            8.4006    -5.7022    -2.4682 C.3     
  23 C23            8.4480    -4.7503    -1.2714 C.3     
  24 N24            9.6452    -7.4373    -3.6673 N.3     
  25 N25           -1.1674    -0.6568     0.0102 N.ar    
  26 C26           -2.3050     0.0125     0.0251 C.ar    
  27 N27           -2.3572     1.3437     0.0327 N.ar    
  28 C28           -1.2610     2.0734     0.0311 C.ar    
  29 S29           -3.8170    -0.8921     0.0348 S.3     
  30 C30           -5.0018     0.4762     0.0542 C.3     
  31 C31           10.9530    -8.0699    -3.8891 C.3     
  32 C32           10.8434    -9.0712    -5.0414 C.3     
  33 N33           10.3872    -8.3734    -6.2516 N.3     
  34 C34            9.0794    -7.7408    -6.0298 C.3     
  35 C35            9.1890    -6.7395    -4.8775 C.3     
  36 C36           10.3417    -9.2874    -7.4007 C.3     
  37 H37            1.2080     3.2037     0.0074 H       
  38 H38            3.1653     3.3904    -1.6529 H       
  39 H39            5.3405     4.5393    -1.6602 H       
  40 H40            7.0817     3.8959    -0.0456 H       
  41 H41            6.6584     2.1012     1.5830 H       
  42 H42            4.4871     0.9452     1.6093 H       
  43 H43            2.8090    -2.3809     1.1918 H       
  44 H44            4.9078    -3.6635     1.1577 H       
  45 H45            6.7160    -0.6737    -1.2902 H       
  46 H46            4.6236     0.6196    -1.2743 H       
  47 H47            8.0643    -2.3525    -0.1783 H       
  48 H48            7.3100    -3.5996     0.8434 H       
  49 H49            6.3993    -4.5627    -1.1936 H       
  50 H50           10.5442    -5.8531    -2.6204 H       
  51 H51            9.7899    -7.1003    -1.5987 H       
  52 H52            8.3014    -5.1252    -3.3877 H       
  53 H53            7.5471    -6.3724    -2.3659 H       
  54 H54            9.3015    -4.0801    -1.3737 H       
  55 H55            8.5472    -5.3272    -0.3519 H       
  56 H56           -1.3156     3.1520     0.0373 H       
  57 H57           -4.8424     1.0821     0.9461 H       
  58 H58           -4.8598     1.0922    -0.8338 H       
  59 H59           -6.0164     0.0781     0.0618 H       
  60 H60           11.6887    -7.3058    -4.1400 H       
  61 H61           11.2634    -8.5906    -2.9832 H       
  62 H62           11.8191    -9.5205    -5.2267 H       
  63 H63           10.1278    -9.8504    -4.7793 H       
  64 H64            8.7690    -7.2202    -6.9357 H       
  65 H65            8.3437    -8.5049    -5.7789 H       
  66 H66            8.2133    -6.2902    -4.6922 H       
  67 H67            9.9047    -5.9603    -5.1396 H       
  68 H68            9.6528   -10.1048    -7.1878 H       
  69 H69           10.0009    -8.7453    -8.2828 H       
  70 H70           11.3378    -9.6903    -7.5841 H       
@<TRIPOS>BOND
   1    1    2 ar
   2    1    3 ar
   3    1   28 ar
   4    2   25 ar
   5    2    6 ar
   6    3    4 ar
   7    3   37 1
   8    4    5 ar
   9    4    8 1
  10    5    6 ar
  11    5    7 1
  12    7   14 ar
  13    7   18 ar
  14    8    9 ar
  15    8   13 ar
  16    9   10 ar
  17    9   38 1
  18   10   11 ar
  19   10   39 1
  20   11   12 ar
  21   11   40 1
  22   12   13 ar
  23   12   41 1
  24   13   42 1
  25   14   15 ar
  26   14   43 1
  27   15   16 ar
  28   15   44 1
  29   16   17 ar
  30   16   19 1
  31   17   18 ar
  32   17   45 1
  33   18   46 1
  34   19   20 1
  35   19   47 1
  36   19   48 1
  37   20   23 1
  38   20   49 1
  39   21   22 1
  40   21   24 1
  41   21   50 1
  42   21   51 1
  43   22   23 1
  44   22   52 1
  45   22   53 1
  46   23   54 1
  47   23   55 1
  48   24   31 1
  49   24   35 1
  50   25   26 ar
  51   26   27 ar
  52   26   29 1
  53   27   28 ar
  54   28   56 1
  55   29   30 1
  56   30   57 1
  57   30   58 1
  58   30   59 1
  59   31   32 1
  60   31   60 1
  61   31   61 1
  62   32   33 1
  63   32   62 1
  64   32   63 1
  65   33   34 1
  66   33   36 1
  67   34   35 1
  68   34   64 1
  69   34   65 1
  70   35   66 1
  71   35   67 1
  72   36   68 1
  73   36   69 1
  74   36   70 1

#	End of record

