#	Name: ASD01901154
#	Creating user name:	WinNT
#	Creation time:	15. 06. 2019 19:53

#	Modifying user name:	WinNT
#	Modification time:	15. 06. 2019 19:53

#	Program:	/corina/corina34_cracker 3.40 0067  02.08.2006

@<TRIPOS>MOLECULE
ASD01901154
  51   54    0    0    0
SMALL
NO_CHARGES


@<TRIPOS>ATOM
   1 C1            -0.2591     1.5303     2.0583 C.ar    
   2 N2            -0.2688     0.2326     2.2799 N.ar    
   3 C3             0.8459    -0.4673     2.3722 C.ar    
   4 C4             2.0829     0.1374     2.2389 C.ar    
   5 C5             2.1497     1.4994     2.0050 C.ar    
   6 C6             0.9495     2.2166     1.9119 C.ar    
   7 C7             0.9611     3.6280     1.6705 C.1     
   8 C8             0.9706     4.7852     1.4725 C.1     
   9 C9             0.9823     6.1966     1.2311 C.ar    
  10 C10            2.1972     6.8726     1.0863 C.ar    
  11 C11            2.2046     8.2327     0.8532 C.ar    
  12 C12            1.0048     8.9312     0.7628 C.ar    
  13 C13           -0.2062     8.2618     0.9068 C.ar    
  14 C14           -0.2214     6.9007     1.1339 C.ar    
  15 N15            1.0162    10.3136     0.5263 N.am    
  16 C16            0.9938    10.7688    -0.7374 C.2     
  17 N17            1.2408    12.0570    -1.0254 N.am    
  18 C18            1.6662    12.9929     0.0171 C.3     
  19 C19            0.9600    12.6505     1.3309 C.3     
  20 C20            1.0438    11.1640     1.5687 C.2     
  21 O21            0.7444     9.9962    -1.6419 O.2     
  22 F22            3.3783     8.8869     0.7131 F       
  23 O23            1.1398    10.7355     2.6987 O.2     
  24 F24           -1.3689     8.9441     0.8187 F       
  25 C25            1.0828    12.5325    -2.4020 C.3     
  26 C26            1.3071    14.4212    -0.3976 C.3     
  27 C27            3.1575    12.8850     0.2057 C.ar    
  28 C28            3.9036    12.0783    -0.6331 C.ar    
  29 C29            3.7800    13.5969     1.2138 C.ar    
  30 C30            5.1479    13.4979     1.3869 C.ar    
  31 C31            5.8932    12.6865     0.5520 C.ar    
  32 C32            5.2715    11.9793    -0.4601 C.ar    
  33 H33           -1.1928     2.0681     1.9847 H       
  34 H34            0.7917    -1.5303     2.5552 H       
  35 H35            2.9873    -0.4477     2.3171 H       
  36 H36            3.1022     1.9969     1.8973 H       
  37 H37            3.1290     6.3311     1.1571 H       
  38 H38           -1.1620     6.3808     1.2408 H       
  39 H39            1.4423    13.1802     2.1524 H       
  40 H40           -0.0870    12.9476     1.2697 H       
  41 H41            0.7636    11.7063    -3.0373 H       
  42 H42            0.3327    13.3229    -2.4296 H       
  43 H43            2.0345    12.9220    -2.7634 H       
  44 H44            1.6269    15.1162     0.3788 H       
  45 H45            1.8101    14.6652    -1.3333 H       
  46 H46            0.2285    14.4997    -0.5336 H       
  47 H47            3.4178    11.5253    -1.4233 H       
  48 H48            3.1977    14.2309     1.8661 H       
  49 H49            5.6344    14.0547     2.1741 H       
  50 H50            6.9620    12.6093     0.6869 H       
  51 H51            5.8544    11.3488    -1.1152 H       
@<TRIPOS>BOND
   1    1    2 ar
   2    1    6 ar
   3    1   33 1
   4    2    3 ar
   5    3    4 ar
   6    3   34 1
   7    4    5 ar
   8    4   35 1
   9    5    6 ar
  10    5   36 1
  11    6    7 1
  12    7    8 3
  13    8    9 1
  14    9   10 ar
  15    9   14 ar
  16   10   11 ar
  17   10   37 1
  18   11   12 ar
  19   11   22 1
  20   12   13 ar
  21   12   15 1
  22   13   14 ar
  23   13   24 1
  24   14   38 1
  25   15   16 am
  26   15   20 am
  27   16   17 am
  28   16   21 2
  29   17   25 1
  30   17   18 1
  31   18   19 1
  32   18   26 1
  33   18   27 1
  34   19   20 1
  35   19   39 1
  36   19   40 1
  37   20   23 2
  38   25   41 1
  39   25   42 1
  40   25   43 1
  41   26   44 1
  42   26   45 1
  43   26   46 1
  44   27   29 ar
  45   27   28 ar
  46   28   32 ar
  47   28   47 1
  48   29   30 ar
  49   29   48 1
  50   30   31 ar
  51   30   49 1
  52   31   32 ar
  53   31   50 1
  54   32   51 1

#	End of record

