#	Name: ASD01911555
#	Creating user name:	WinNT
#	Creation time:	15. 06. 2019 19:58

#	Modifying user name:	WinNT
#	Modification time:	15. 06. 2019 19:58

#	Program:	/corina/corina34_cracker 3.40 0067  02.08.2006

@<TRIPOS>MOLECULE
ASD01911555
  37   39    0    0    0
SMALL
NO_CHARGES


@<TRIPOS>ATOM
   1 N1            -0.0108     1.2590    -0.4679 N.am    
   2 C2            -1.2470     1.8465    -1.0020 C.3     
   3 C3             0.0021    -0.0041     0.0020 C.2     
   4 C4            -1.2508    -0.7543     0.1205 C.2     
   5 C5            -1.3862    -2.1135     0.0310 C.2     
   6 S6            -2.8471    -0.0659     0.4110 S.3     
   7 C7            -3.5481    -1.6813     0.3766 C.2     
   8 N8            -2.6015    -2.5625     0.1688 N.2     
   9 C9            -4.9365    -1.9845     0.5531 C.1     
  10 C10           -6.0747    -2.2331     0.6978 C.1     
  11 C11           -7.4631    -2.5364     0.8742 C.ar    
  12 C12           -7.9039    -3.8623     0.8264 C.ar    
  13 C13           -9.2445    -4.1465     0.9980 C.ar    
  14 C14          -10.1506    -3.1203     1.2170 C.ar    
  15 C15           -9.7198    -1.8067     1.2652 C.ar    
  16 C16           -8.3832    -1.5085     1.1009 C.ar    
  17 O17            1.0545    -0.5215     0.3280 O.2     
  18 C18            1.2127     2.0726    -0.4616 C.3     
  19 C19            1.4569     2.6069    -1.8764 C.3     
  20 C20            0.2097     3.3511    -2.3587 C.3     
  21 C21           -0.9696     2.3838    -2.4095 C.3     
  22 F22           -9.6737    -5.4267     0.9519 F       
  23 H23           -2.0238     1.0833    -1.0487 H       
  24 H24           -1.5721     2.6627    -0.3568 H       
  25 H25           -0.5446    -2.7679    -0.1420 H       
  26 H26           -7.1983    -4.6619     0.6554 H       
  27 H27          -11.1980    -3.3476     1.3503 H       
  28 H28          -10.4315    -1.0125     1.4359 H       
  29 H29           -8.0492    -0.4821     1.1389 H       
  30 H30            1.0926     2.9076     0.2287 H       
  31 H31            2.0583     1.4585    -0.1518 H       
  32 H32            2.3066     3.2895    -1.8658 H       
  33 H33            1.6666     1.7746    -2.5483 H       
  34 H34           -0.0137     4.1680    -1.6725 H       
  35 H35            0.3897     3.7534    -3.3556 H       
  36 H36           -0.7330     1.5565    -3.0786 H       
  37 H37           -1.8534     2.9066    -2.7751 H       
@<TRIPOS>BOND
   1    1    3 am
   2    1   18 1
   3    1    2 1
   4    2   21 1
   5    2   23 1
   6    2   24 1
   7    3    4 1
   8    3   17 2
   9    4    5 2
  10    4    6 1
  11    5    8 1
  12    5   25 1
  13    6    7 1
  14    7    8 2
  15    7    9 1
  16    9   10 3
  17   10   11 1
  18   11   12 ar
  19   11   16 ar
  20   12   13 ar
  21   12   26 1
  22   13   14 ar
  23   13   22 1
  24   14   15 ar
  25   14   27 1
  26   15   16 ar
  27   15   28 1
  28   16   29 1
  29   18   19 1
  30   18   30 1
  31   18   31 1
  32   19   20 1
  33   19   32 1
  34   19   33 1
  35   20   21 1
  36   20   34 1
  37   20   35 1
  38   21   36 1
  39   21   37 1

#	End of record

