#	Name: ASD00170211
#	Creating user name:	WinNT
#	Creation time:	15. 06. 2019 18:31

#	Modifying user name:	WinNT
#	Modification time:	15. 06. 2019 18:31

#	Program:	/corina/corina34_cracker 3.40 0067  02.08.2006

@<TRIPOS>MOLECULE
ASD00170211
  43   45    0    0    0
SMALL
NO_CHARGES


@<TRIPOS>ATOM
   1 C1             0.0504     1.2484    -0.0629 C.2     
   2 C2            -0.0711    -0.1045     0.0388 C.2     
   3 C3            -1.4570    -0.5304     0.1154 C.2     
   4 C4            -2.3418     0.5175     0.0691 C.2     
   5 S5            -1.5303     2.0094    -0.0579 S.3     
   6 C6             1.0793    -1.0350     0.0671 C.ar    
   7 C7             1.3631    -1.7631     1.2229 C.ar    
   8 C8             2.4372    -2.6291     1.2429 C.ar    
   9 C9             3.2319    -2.7760     0.1202 C.ar    
  10 C10            2.9558    -2.0568    -1.0293 C.ar    
  11 C11            1.8815    -1.1922    -1.0640 C.ar    
  12 N12           -3.7129     0.3804     0.1236 N.pl3   
  13 C13           -1.8668    -1.9288     0.2292 C.2     
  14 O14           -2.0948    -2.6576    -0.8832 O.3     
  15 O15           -2.0025    -2.4357     1.3269 O.2     
  16 C16            1.3323     1.9729    -0.1576 C.ar    
  17 C17            1.5116     2.9576    -1.1323 C.ar    
  18 C18            2.7125     3.6308    -1.2150 C.ar    
  19 C19            3.7385     3.3328    -0.3355 C.ar    
  20 C20            3.5681     2.3586     0.6325 C.ar    
  21 C21            2.3705     1.6814     0.7306 C.ar    
  22 C22           -2.4924    -4.0176    -0.6976 C.3     
  23 C23           -2.7033    -4.6779    -2.0615 C.3     
  24 C24            2.7456    -3.4160     2.4906 C.3     
  25 F25            2.0617    -4.6359     2.4534 F       
  26 F26            4.1221    -3.6550     2.5629 F       
  27 F27            2.3391    -2.6875     3.6137 F       
  28 H28            0.7436    -1.6490     2.1002 H       
  29 H29            4.0717    -3.4548     0.1410 H       
  30 H30            3.5802    -2.1757    -1.9024 H       
  31 H31            1.6670    -0.6313    -1.9617 H       
  32 H32           -4.1095    -0.5015     0.1999 H       
  33 H33           -4.2808     1.1659     0.0858 H       
  34 H34            0.7118     3.1910    -1.8196 H       
  35 H35            2.8527     4.3920    -1.9682 H       
  36 H36            4.6769     3.8628    -0.4051 H       
  37 H37            4.3731     2.1313     1.3156 H       
  38 H38            2.2387     0.9216     1.4868 H       
  39 H39           -1.7152    -4.5521    -0.1514 H       
  40 H40           -3.4227    -4.0499    -0.1305 H       
  41 H41           -3.4805    -4.1434    -2.6077 H       
  42 H42           -1.7730    -4.6456    -2.6286 H       
  43 H43           -3.0067    -5.7153    -1.9199 H       
@<TRIPOS>BOND
   1    1    2 2
   2    1   16 1
   3    1    5 1
   4    2    3 1
   5    2    6 1
   6    3    4 2
   7    3   13 1
   8    4    5 1
   9    4   12 1
  10    6    7 ar
  11    6   11 ar
  12    7    8 ar
  13    7   28 1
  14    8    9 ar
  15    8   24 1
  16    9   10 ar
  17    9   29 1
  18   10   11 ar
  19   10   30 1
  20   11   31 1
  21   12   32 1
  22   12   33 1
  23   13   14 1
  24   13   15 2
  25   14   22 1
  26   16   17 ar
  27   16   21 ar
  28   17   18 ar
  29   17   34 1
  30   18   19 ar
  31   18   35 1
  32   19   20 ar
  33   19   36 1
  34   20   21 ar
  35   20   37 1
  36   21   38 1
  37   22   23 1
  38   22   39 1
  39   22   40 1
  40   23   41 1
  41   23   42 1
  42   23   43 1
  43   24   25 1
  44   24   26 1
  45   24   27 1

#	End of record

