#	Name: ASD01811745
#	Creating user name:	WinNT
#	Creation time:	15. 06. 2019 19:27

#	Modifying user name:	WinNT
#	Modification time:	15. 06. 2019 19:27

#	Program:	/corina/corina34_cracker 3.40 0067  02.08.2006

@<TRIPOS>MOLECULE
ASD01811745
  51   55    0    0    0
SMALL
NO_CHARGES


@<TRIPOS>ATOM
   1 C1            -0.0167     1.3820     0.0096 C.ar    
   2 C2             0.0021    -0.0041     0.0020 C.ar    
   3 C3             1.2092    -0.6837    -0.0132 C.ar    
   4 C4             2.3994     0.0122    -0.0208 C.ar    
   5 C5             2.3881     1.4088    -0.0132 C.ar    
   6 C6             1.1653     2.0846     0.0021 C.ar    
   7 Cl7           -1.4906    -0.8904     0.0121 Cl      
   8 C8             1.2215    -2.1906    -0.0209 C.3     
   9 C9             0.9925    -2.7020     1.3781 C.ar    
  10 C10           -0.2945    -2.9447     1.8220 C.ar    
  11 C11           -0.5075    -3.4138     3.1035 C.ar    
  12 C12            0.5721    -3.6417     3.9462 C.ar    
  13 C13            1.8630    -3.3970     3.4977 C.ar    
  14 C14            2.0700    -2.9329     2.2133 C.ar    
  15 N15            0.3591    -4.1174     5.2475 N.pl3   
  16 N16           -0.8834    -4.4053     5.8270 N.2     
  17 C17           -0.6773    -4.8259     7.0491 C.2     
  18 C18            0.7014    -4.8197     7.2878 C.2     
  19 C19            1.3169    -4.3851     6.1638 C.2     
  20 C20            3.4703     2.4108    -0.0177 C.2     
  21 N21            2.9562     3.6527    -0.0058 N.am    
  22 C22            1.4920     3.5571     0.0074 C.3     
  23 O23            4.6577     2.1507    -0.0297 O.2     
  24 C24            3.7300     4.8967    -0.0053 C.3     
  25 C25            4.6107     4.9701    -1.2649 C.3     
  26 C26            6.0726     5.0383    -0.7772 C.3     
  27 C27            6.0318     4.4043     0.6354 C.3     
  28 C28            4.6876     4.9228     1.2040 C.3     
  29 O29            4.2908     6.1415    -2.0182 O.3     
  30 H30           -0.9590     1.9097     0.0170 H       
  31 H31            3.3383    -0.5214    -0.0323 H       
  32 H32            0.4308    -2.5570    -0.6756 H       
  33 H33            2.1866    -2.5442    -0.3835 H       
  34 H34           -1.1339    -2.7669     1.1661 H       
  35 H35           -1.5129    -3.6029     3.4497 H       
  36 H36            2.7048    -3.5730     4.1510 H       
  37 H37            3.0740    -2.7424     1.8638 H       
  38 H38           -1.4400    -5.1258     7.7524 H       
  39 H39            1.1886    -5.1137     8.2057 H       
  40 H40            2.3815    -4.2676     6.0253 H       
  41 H41            1.0773     4.0360    -0.8796 H       
  42 H42            1.0941     4.0259     0.9074 H       
  43 H43            3.0587     5.7546     0.0315 H       
  44 H44            4.4623     4.0802    -1.8767 H       
  45 H45            6.7218     4.4612    -1.4357 H       
  46 H46            6.4081     6.0739    -0.7210 H       
  47 H47            6.0297     3.3162     0.5705 H       
  48 H48            6.8680     4.7547     1.2404 H       
  49 H49            4.7994     5.9397     1.5801 H       
  50 H50            4.3259     4.2614     1.9913 H       
  51 H51            4.8130     6.2448    -2.8255 H       
@<TRIPOS>BOND
   1    1    2 ar
   2    1    6 ar
   3    1   30 1
   4    2    3 ar
   5    2    7 1
   6    3    4 ar
   7    3    8 1
   8    4    5 ar
   9    4   31 1
  10    5    6 ar
  11    5   20 1
  12    6   22 1
  13    8    9 1
  14    8   32 1
  15    8   33 1
  16    9   10 ar
  17    9   14 ar
  18   10   11 ar
  19   10   34 1
  20   11   12 ar
  21   11   35 1
  22   12   13 ar
  23   12   15 1
  24   13   14 ar
  25   13   36 1
  26   14   37 1
  27   15   16 1
  28   15   19 1
  29   16   17 2
  30   17   18 1
  31   17   38 1
  32   18   19 2
  33   18   39 1
  34   19   40 1
  35   20   21 am
  36   20   23 2
  37   21   22 1
  38   21   24 1
  39   22   41 1
  40   22   42 1
  41   24   25 1
  42   24   28 1
  43   24   43 1
  44   25   26 1
  45   25   29 1
  46   25   44 1
  47   26   27 1
  48   26   45 1
  49   26   46 1
  50   27   28 1
  51   27   47 1
  52   27   48 1
  53   28   49 1
  54   28   50 1
  55   29   51 1

#	End of record

