#	Name: ASD00311158
#	Creating user name:	WinNT
#	Creation time:	15. 06. 2019 18:34

#	Modifying user name:	WinNT
#	Modification time:	15. 06. 2019 18:34

#	Program:	/corina/corina34_cracker 3.40 0067  02.08.2006

@<TRIPOS>MOLECULE
ASD00311158
  36   39    0    0    0
SMALL
NO_CHARGES


@<TRIPOS>ATOM
   1 C1            -0.0167     1.3774     0.0096 C.2     
   2 C2             0.0021    -0.0041     0.0020 C.2     
   3 C3             1.2587    -0.6767    -0.0131 C.2     
   4 C4             2.4314     0.0670    -0.0199 C.2     
   5 C5             2.3575     1.4747    -0.0117 C.2     
   6 N6             1.1650     2.0899     0.0022 N.am    
   7 C7            -1.3434    -0.5755     0.0118 C.2     
   8 C8            -2.3233     0.3267     0.0260 C.2     
   9 S9            -1.6791     1.9565     0.0358 S.3     
  10 O10            3.3826     2.1367    -0.0171 O.2     
  11 C11           -1.5960    -2.0354     0.0064 C.ar    
  12 C12           -2.2071    -2.6443     1.1021 C.ar    
  13 C13           -2.4401    -4.0043     1.0910 C.ar    
  14 C14           -2.0684    -4.7636    -0.0040 C.ar    
  15 C15           -1.4618    -4.1654    -1.0939 C.ar    
  16 C16           -1.2287    -2.8053    -1.0969 C.ar    
  17 O17            1.3085    -2.0294    -0.0204 O.3     
  18 C18            3.7477    -0.6126    -0.0352 C.ar    
  19 C19            4.5248    -0.6625     1.1244 C.ar    
  20 C20            5.7512    -1.2985     1.1028 C.ar    
  21 C21            6.2086    -1.8845    -0.0640 C.ar    
  22 C22            5.4429    -1.8378    -1.2149 C.ar    
  23 C23            4.2134    -1.2101    -1.2053 C.ar    
  24 F24            4.0787    -0.0900     2.2639 F       
  25 Cl25          -4.0154    -0.0609     0.0395 Cl      
  26 H26            1.1329     3.0594     0.0077 H       
  27 H27           -2.4971    -2.0525     1.9578 H       
  28 H28           -2.9134    -4.4769     1.9390 H       
  29 H29           -2.2522    -5.8279    -0.0078 H       
  30 H30           -1.1738    -4.7634    -1.9459 H       
  31 H31           -0.7591    -2.3386    -1.9502 H       
  32 H32            2.2057    -2.3899    -0.0307 H       
  33 H33            6.3538    -1.3379     1.9982 H       
  34 H34            7.1681    -2.3802    -0.0764 H       
  35 H35            5.8059    -2.2972    -2.1223 H       
  36 H36            3.6151    -1.1787    -2.1039 H       
@<TRIPOS>BOND
   1    1    2 2
   2    1    6 1
   3    1    9 1
   4    2    3 1
   5    2    7 1
   6    3    4 2
   7    3   17 1
   8    4    5 1
   9    4   18 1
  10    5    6 am
  11    5   10 2
  12    6   26 1
  13    7    8 2
  14    7   11 1
  15    8    9 1
  16    8   25 1
  17   11   12 ar
  18   11   16 ar
  19   12   13 ar
  20   12   27 1
  21   13   14 ar
  22   13   28 1
  23   14   15 ar
  24   14   29 1
  25   15   16 ar
  26   15   30 1
  27   16   31 1
  28   17   32 1
  29   18   19 ar
  30   18   23 ar
  31   19   20 ar
  32   19   24 1
  33   20   21 ar
  34   20   33 1
  35   21   22 ar
  36   21   34 1
  37   22   23 ar
  38   22   35 1
  39   23   36 1

#	End of record

