#	Name: ASD01880697
#	Creating user name:	WinNT
#	Creation time:	15. 06. 2019 19:41

#	Modifying user name:	WinNT
#	Modification time:	15. 06. 2019 19:41

#	Program:	/corina/corina34_cracker 3.40 0067  02.08.2006

@<TRIPOS>MOLECULE
ASD01880697
  50   53    0    0    0
SMALL
NO_CHARGES


@<TRIPOS>ATOM
   1 N1            -0.0140     1.3132    -0.0043 N.ar    
   2 C2             0.0050    -0.0048    -0.0251 C.ar    
   3 N3             1.1356    -0.6834    -0.0544 N.ar    
   4 C4             2.3055    -0.0606    -0.0640 C.ar    
   5 C5             2.3343     1.3202    -0.0430 C.ar    
   6 C6             1.1198     2.0084    -0.0122 C.ar    
   7 C7             3.6441     2.0655    -0.0525 C.3     
   8 O8             4.7240     1.1303    -0.0845 O.3     
   9 C9             5.9813     1.6411    -0.0969 C.ar    
  10 C10            7.0787     0.7862    -0.1279 C.ar    
  11 C11            8.3499     1.3042    -0.1408 C.ar    
  12 C12            8.5503     2.6885    -0.1230 C.ar    
  13 C13            7.4446     3.5428    -0.0922 C.ar    
  14 C14            6.1714     3.0178    -0.0843 C.ar    
  15 C15            9.7209     0.6759    -0.1729 C.3     
  16 N16           10.6804     1.7861    -0.1716 N.am    
  17 C17           10.0008     2.9453    -0.1428 C.2     
  18 O18           10.5107     4.0490    -0.1347 O.2     
  19 Br19          -1.6337    -0.9484    -0.0121 Br      
  20 C20            7.6452     5.0362    -0.0721 C.3     
  21 N21            1.0962     3.3944     0.0094 N.pl3   
  22 C22           -0.1219     4.0742    -0.0809 C.ar    
  23 C23           -0.3050     5.2686     0.6042 C.ar    
  24 C24           -1.5095     5.9379     0.5125 C.ar    
  25 C25           -2.5330     5.4200    -0.2599 C.ar    
  26 C26           -2.3543     4.2308    -0.9428 C.ar    
  27 C27           -1.1501     3.5597    -0.8604 C.ar    
  28 C28           12.6237     1.6281    -1.6482 C.3     
  29 C29           12.1391     1.6528    -0.1971 C.3     
  30 H30            3.2254    -0.6260    -0.0877 H       
  31 H31            3.6915     2.7056    -0.9335 H       
  32 H32            3.7202     2.6779     0.8460 H       
  33 H33            6.9305    -0.2835    -0.1415 H       
  34 H34            5.3174     3.6785    -0.0609 H       
  35 H35            9.8681     0.0525     0.7090 H       
  36 H36            9.8388     0.0798    -1.0777 H       
  37 H37            7.6773     5.4123    -1.0947 H       
  38 H38            6.8197     5.5065     0.4622 H       
  39 H39            8.5836     5.2700     0.4307 H       
  40 H40            1.9249     3.8925     0.0870 H       
  41 H41            0.4937     5.6733     1.2082 H       
  42 H42           -1.6524     6.8666     1.0449 H       
  43 H43           -3.4741     5.9451    -0.3296 H       
  44 H44           -3.1559     3.8287    -1.5446 H       
  45 H45           -1.0110     2.6312    -1.3943 H       
  46 H46           13.7090     1.5290    -1.6671 H       
  47 H47           12.1725     0.7827    -2.1676 H       
  48 H48           12.3348     2.5551    -2.1435 H       
  49 H49           12.5903     2.4983     0.3223 H       
  50 H50           12.4280     0.7259     0.2982 H       
@<TRIPOS>BOND
   1    1    2 ar
   2    1    6 ar
   3    2    3 ar
   4    2   19 1
   5    3    4 ar
   6    4    5 ar
   7    4   30 1
   8    5    6 ar
   9    5    7 1
  10    6   21 1
  11    7    8 1
  12    7   31 1
  13    7   32 1
  14    8    9 1
  15    9   10 ar
  16    9   14 ar
  17   10   11 ar
  18   10   33 1
  19   11   12 ar
  20   11   15 1
  21   12   13 ar
  22   12   17 1
  23   13   14 ar
  24   13   20 1
  25   14   34 1
  26   15   16 1
  27   15   35 1
  28   15   36 1
  29   16   17 am
  30   16   29 1
  31   17   18 2
  32   20   37 1
  33   20   38 1
  34   20   39 1
  35   21   22 1
  36   21   40 1
  37   22   23 ar
  38   22   27 ar
  39   23   24 ar
  40   23   41 1
  41   24   25 ar
  42   24   42 1
  43   25   26 ar
  44   25   43 1
  45   26   27 ar
  46   26   44 1
  47   27   45 1
  48   28   29 1
  49   28   46 1
  50   28   47 1
  51   28   48 1
  52   29   49 1
  53   29   50 1

#	End of record

