#	Name: ASD05250064
#	Creating user name:	WinNT
#	Creation time:	15. 06. 2019 20:58

#	Modifying user name:	WinNT
#	Modification time:	15. 06. 2019 20:58

#	Program:	/corina/corina34_cracker 3.40 0067  02.08.2006

@<TRIPOS>MOLECULE
ASD05250064
  38   40    0    0    0
SMALL
NO_CHARGES


@<TRIPOS>ATOM
   1 C1            -0.0187     1.5258     0.0104 C.3     
   2 C2             0.0021    -0.0041     0.0020 C.3     
   3 S3             0.7182    -0.5905    -1.5581 S.3     
   4 C4            -1.4266    -0.5342     0.1385 C.3     
   5 O5            -2.0310     0.0210     1.3084 O.3     
   6 C6            -1.3956    -2.0595     0.2555 C.3     
   7 C7            -2.8272    -2.5993     0.2666 C.3     
   8 O8            -3.4479    -2.3292    -0.9919 O.3     
   9 C9            -2.8007    -4.1099     0.5084 C.3     
  10 C10            3.1863     1.1338    -2.8205 C.2     
  11 N11            2.2738     2.1543    -2.5555 N.3     
  12 C12            2.1967     2.2479    -1.1355 C.2     
  13 C13            3.3949     2.7309    -0.6980 C.2     
  14 C14            4.2135     2.9307    -1.9748 C.3     
  15 N15            4.3835     1.5355    -2.4920 N.2     
  16 N16            3.3492     2.8261     0.6526 N.pl3   
  17 C17            1.3951     2.0474    -0.0003 C.2     
  18 C18            2.1212     2.4074     1.0807 C.2     
  19 O19            5.3818     3.7488    -1.8869 O.3     
  20 N20            3.0895     3.3586    -2.8983 N.3     
  21 H21           -0.5459     1.8868    -0.8726 H       
  22 H22           -0.5289     1.8773     0.9072 H       
  23 H23            0.6044    -0.3639     0.8362 H       
  24 H24           -0.1134    -0.0797    -2.4836 H       
  25 H25           -2.0055    -0.2489    -0.7398 H       
  26 H26           -1.5676    -0.1929     2.1297 H       
  27 H27           -0.8560    -2.4781    -0.5940 H       
  28 H28           -0.8933    -2.3428     1.1804 H       
  29 H29           -3.3924    -2.1138     1.0621 H       
  30 H30           -2.9972    -2.7312    -1.7471 H       
  31 H31           -2.3273    -4.3159     1.4683 H       
  32 H32           -3.8206    -4.4945     0.5163 H       
  33 H33           -2.2355    -4.5953    -0.2872 H       
  34 H34            2.9408     0.1643    -3.2282 H       
  35 H35            4.0695     3.1394     1.2217 H       
  36 H36            1.7879     2.3707     2.1073 H       
  37 H37            5.8609     3.8413    -2.7218 H       
  38 H38            3.3844     3.3330    -3.8629 H       
@<TRIPOS>BOND
   1    1    2 1
   2    1   17 1
   3    1   21 1
   4    1   22 1
   5    2    3 1
   6    2    4 1
   7    2   23 1
   8    3   24 1
   9    4    5 1
  10    4    6 1
  11    4   25 1
  12    5   26 1
  13    6    7 1
  14    6   27 1
  15    6   28 1
  16    7    8 1
  17    7    9 1
  18    7   29 1
  19    8   30 1
  20    9   31 1
  21    9   32 1
  22    9   33 1
  23   10   11 1
  24   10   15 2
  25   10   34 1
  26   11   12 1
  27   11   20 1
  28   12   13 2
  29   12   17 1
  30   13   14 1
  31   13   16 1
  32   14   15 1
  33   14   19 1
  34   14   20 1
  35   16   18 1
  36   16   35 1
  37   17   18 2
  38   18   36 1
  39   19   37 1
  40   20   38 1

#	End of record

