#	Name: ASD01917973
#	Creating user name:	WinNT
#	Creation time:	15. 06. 2019 20:10

#	Modifying user name:	WinNT
#	Modification time:	15. 06. 2019 20:10

#	Program:	/corina/corina34_cracker 3.40 0067  02.08.2006

@<TRIPOS>MOLECULE
ASD01917973
  41   44    0    0    0
SMALL
NO_CHARGES


@<TRIPOS>ATOM
   1 N1             4.8198    -0.4123    -2.1410 N.ar    
   2 C2             5.2872     0.2858    -3.1575 C.ar    
   3 C3             5.1753     1.6645    -3.1832 C.ar    
   4 C4             4.5622     2.3133    -2.1219 C.ar    
   5 C5             4.0811     1.5452    -1.0668 C.ar    
   6 C6             4.2308     0.1663    -1.1136 C.ar    
   7 O7             3.4734     2.1366    -0.0049 O.3     
   8 C8             3.4547     3.4958     0.0446 C.2     
   9 N9             2.2049     5.5090    -0.0216 N.pl3   
  10 C10            2.2722     4.1532    -0.0650 C.2     
  11 C11            4.6547     4.1968     0.2135 C.2     
  12 C12            4.6275     5.5861     0.2631 C.2     
  13 C13            3.3353     6.2597     0.1355 C.2     
  14 C14            5.8679     6.3598     0.4400 C.2     
  15 N15            5.8218     7.7060     0.4858 N.am    
  16 C16            6.9779     8.4336     0.7584 C.ar    
  17 N17            8.1388     7.8044     0.8642 N.ar    
  18 C18            6.9026     9.8122     0.9109 C.ar    
  19 C19            8.0581    10.5270     1.1815 C.ar    
  20 C20            9.2541     9.8361     1.2907 C.ar    
  21 C21            9.2597     8.4582     1.1217 C.ar    
  22 O22            6.9340     5.7839     0.5449 O.2     
  23 N23            1.1425     6.4206    -0.1080 N.2     
  24 C24            1.6577     7.6231    -0.0103 C.2     
  25 N25            2.9728     7.5327     0.1417 N.2     
  26 Cl26           5.7954     2.5713    -4.5274 Cl      
  27 O27           10.4272     7.7745     1.2222 O.3     
  28 C28           10.3678     6.3586     1.0388 C.3     
  29 H29            5.7639    -0.2255    -3.9808 H       
  30 H30            4.4611     3.3886    -2.1147 H       
  31 H31            3.8605    -0.4393    -0.2996 H       
  32 H32            1.3628     3.5842    -0.1900 H       
  33 H33            5.5902     3.6649     0.3045 H       
  34 H34            4.9836     8.1681     0.3288 H       
  35 H35            5.9543    10.3209     0.8193 H       
  36 H36            8.0274    11.5996     1.3043 H       
  37 H37           10.1725    10.3641     1.5009 H       
  38 H38            1.0964     8.5453    -0.0410 H       
  39 H39            9.7075     5.9225     1.7886 H       
  40 H40            9.9834     6.1370     0.0432 H       
  41 H41           11.3670     5.9362     1.1449 H       
@<TRIPOS>BOND
   1    1    2 ar
   2    1    6 ar
   3    2    3 ar
   4    2   29 1
   5    3    4 ar
   6    3   26 1
   7    4    5 ar
   8    4   30 1
   9    5    6 ar
  10    5    7 1
  11    6   31 1
  12    7    8 1
  13    8   11 1
  14    8   10 2
  15    9   10 1
  16    9   23 1
  17    9   13 1
  18   10   32 1
  19   11   12 2
  20   11   33 1
  21   12   13 1
  22   12   14 1
  23   13   25 2
  24   14   15 am
  25   14   22 2
  26   15   16 1
  27   15   34 1
  28   16   18 ar
  29   16   17 ar
  30   17   21 ar
  31   18   19 ar
  32   18   35 1
  33   19   20 ar
  34   19   36 1
  35   20   21 ar
  36   20   37 1
  37   21   27 1
  38   23   24 2
  39   24   25 1
  40   24   38 1
  41   27   28 1
  42   28   39 1
  43   28   40 1
  44   28   41 1

#	End of record

