#	Name: ASD03730312
#	Creating user name:	WinNT
#	Creation time:	15. 06. 2019 20:44

#	Modifying user name:	WinNT
#	Modification time:	15. 06. 2019 20:44

#	Program:	/corina/corina34_cracker 3.40 0067  02.08.2006

@<TRIPOS>MOLECULE
ASD03730312
  44   49    0    0    0
SMALL
NO_CHARGES


@<TRIPOS>ATOM
   1 N1            -0.4265     1.2776     1.0672 N.3     
   2 C2            -0.3768    -0.2022     1.1205 C.3     
   3 O3             0.7432    -0.5289     0.2782 O.3     
   4 C4             1.5892     0.5414     0.3205 C.ar    
   5 C5             0.9010     1.6590     0.7910 C.ar    
   6 C6             2.9292     0.6508    -0.0112 C.ar    
   7 C7             3.5915     1.8683     0.1131 C.ar    
   8 C8             2.8869     2.9800     0.5643 C.ar    
   9 C9             1.5546     2.8748     0.9066 C.ar    
  10 O10            4.8974     2.1781    -0.1322 O.3     
  11 C11            3.8510     4.1352     0.5506 C.3     
  12 C12            5.0273     3.6047    -0.2807 C.3     
  13 N13            3.3415     6.3407     0.8672 N.am    
  14 C14            3.2512     5.3690    -0.0622 C.2     
  15 C15            4.2772     4.5438     1.9290 C.ar    
  16 C16            4.8837     3.8762     2.9840 C.ar    
  17 C17            5.1574     4.5567     4.1699 C.ar    
  18 C18            4.8236     5.8915     4.2862 C.ar    
  19 C19            4.2203     6.5549     3.2372 C.ar    
  20 C20            3.9387     5.8873     2.0466 C.ar    
  21 O21            2.7793     5.4706    -1.1749 O.2     
  22 C22            5.8810    -0.1468     2.6088 C.ar    
  23 N23            5.0270     0.2148     3.5456 N.ar    
  24 C24            4.6830     1.4819     3.6994 C.ar    
  25 C25            5.2396     2.4416     2.8504 C.ar    
  26 C26            6.1401     2.0136     1.8719 C.ar    
  27 N27            6.4290     0.7264     1.7871 N.ar    
  28 C28           -0.8787     1.8356     2.3487 C.3     
  29 H29           -0.2028    -0.5443     2.1407 H       
  30 H30           -1.2956    -0.6320     0.7216 H       
  31 H31            3.4648    -0.2161    -0.3690 H       
  32 H32            1.0203     3.7420     1.2655 H       
  33 H33            5.9768     3.9513     0.1273 H       
  34 H34            4.9248     3.8959    -1.3260 H       
  35 H35            3.0287     7.2490     0.7330 H       
  36 H36            5.6290     4.0420     4.9940 H       
  37 H37            5.0355     6.4197     5.2041 H       
  38 H38            3.9646     7.5991     3.3396 H       
  39 H39            6.1432    -1.1903     2.5142 H       
  40 H40            3.9824     1.7706     4.4690 H       
  41 H41            6.5930     2.7231     1.1952 H       
  42 H42           -0.1905     1.5354     3.1388 H       
  43 H43           -0.9039     2.9233     2.2827 H       
  44 H44           -1.8773     1.4621     2.5754 H       
@<TRIPOS>BOND
   1    1    2 1
   2    1    5 1
   3    1   28 1
   4    2    3 1
   5    2   29 1
   6    2   30 1
   7    3    4 1
   8    4    5 ar
   9    4    6 ar
  10    5    9 ar
  11    6    7 ar
  12    6   31 1
  13    7    8 ar
  14    7   10 1
  15    8    9 ar
  16    8   11 1
  17    9   32 1
  18   10   12 1
  19   11   12 1
  20   11   14 1
  21   11   15 1
  22   12   33 1
  23   12   34 1
  24   13   14 am
  25   13   20 1
  26   13   35 1
  27   14   21 2
  28   15   16 ar
  29   15   20 ar
  30   16   17 ar
  31   16   25 1
  32   17   18 ar
  33   17   36 1
  34   18   19 ar
  35   18   37 1
  36   19   20 ar
  37   19   38 1
  38   22   23 ar
  39   22   27 ar
  40   22   39 1
  41   23   24 ar
  42   24   25 ar
  43   24   40 1
  44   25   26 ar
  45   26   27 ar
  46   26   41 1
  47   28   42 1
  48   28   43 1
  49   28   44 1

#	End of record

