#	Name: ASD01148007
#	Creating user name:	WinNT
#	Creation time:	15. 06. 2019 19:01

#	Modifying user name:	WinNT
#	Modification time:	15. 06. 2019 19:01

#	Program:	/corina/corina34_cracker 3.40 0067  02.08.2006

@<TRIPOS>MOLECULE
ASD01148007
  70   73    0    0    0
SMALL
NO_CHARGES


@<TRIPOS>ATOM
   1 C1            -0.1008     1.8097     0.0708 C.3     
   2 C2            -0.3704     0.3044     0.2042 C.3     
   3 C3             0.8938    -0.5248     0.3309 C.3     
   4 C4             1.8717    -0.2538    -0.8110 C.3     
   5 C5             2.0367     1.2067    -1.0705 C.3     
   6 C6             1.3757     2.1014     0.0002 C.3     
   7 C7             3.4512     1.8017    -1.1211 C.3     
   8 C8             3.1185     3.3222    -1.2195 C.3     
   9 C9             1.7345     3.5021    -0.5455 C.3     
  10 C10            0.5861    -2.0280     0.3802 C.3     
  11 C11            1.4281    -2.7530    -0.6670 C.3     
  12 C12            2.9162    -2.4837    -0.4613 C.3     
  13 C13            3.1883    -0.9751    -0.5267 C.3     
  14 C14           -0.8948    -2.2741     0.0957 C.3     
  15 C15           -1.1969    -3.7734     0.1174 C.3     
  16 C16           -0.3337    -4.5009    -0.9134 C.3     
  17 C17            1.1488    -4.2562    -0.6209 C.3     
  18 C18            0.9258    -2.5278     1.7876 C.3     
  19 C19           -0.6218    -6.0029    -0.8483 C.3     
  20 C20            2.0354     1.9983     1.3732 C.3     
  21 C21            1.8262     4.4823     0.5955 C.2     
  22 N22            0.9055     5.3176     0.9819 N.2     
  23 C23            2.9268     4.6727     1.4622 C.2     
  24 C24            2.5157     5.6514     2.3034 C.2     
  25 O25            1.2706     5.9763     1.9279 O.3     
  26 C26            3.3012     6.2531     3.4400 C.3     
  27 O27            4.0492     7.3729     2.9619 O.3     
  28 H28           -0.5945     2.1893    -0.8340 H       
  29 H29           -0.5388     2.3346     0.9309 H       
  30 H30           -1.0032     0.1360     1.0859 H       
  31 H31           -0.9379    -0.0276    -0.6751 H       
  32 H32            1.3792    -0.3156     1.2890 H       
  33 H33            1.4468    -0.7014    -1.7314 H       
  34 H34            1.5556     1.4371    -2.0497 H       
  35 H35            4.0320     1.5765    -0.2390 H       
  36 H36            3.9702     1.4748    -2.0239 H       
  37 H37            3.8726     3.9007    -0.6903 H       
  38 H38            3.0689     3.6213    -2.2646 H       
  39 H39            0.9900     3.8123    -1.2707 H       
  40 H40            1.1388    -2.3965    -1.6648 H       
  41 H41            3.2515    -2.8782     0.4942 H       
  42 H42            3.4813    -2.9769    -1.2597 H       
  43 H43            3.9001    -0.7682    -1.3249 H       
  44 H44            3.5945    -0.6373     0.4259 H       
  45 H45           -1.5001    -1.7755     0.8542 H       
  46 H46           -1.1475    -1.8749    -0.8886 H       
  47 H47           -1.0237    -4.1872     1.1068 H       
  48 H48           -2.2520    -3.9229    -0.1392 H       
  49 H49           -0.5713    -4.1315    -1.9116 H       
  50 H50            1.7471    -4.7507    -1.3934 H       
  51 H51            1.4140    -4.6725     0.3448 H       
  52 H52            0.3199    -1.9931     2.5191 H       
  53 H53            0.7173    -3.5956     1.8541 H       
  54 H54            1.9818    -2.3505     1.9911 H       
  55 H55           -1.6752    -6.1805    -1.0651 H       
  56 H56           -0.0070    -6.5229    -1.5828 H       
  57 H57           -0.3885    -6.3746     0.1494 H       
  58 H58            3.0405     2.4173     1.3258 H       
  59 H59            1.4448     2.5526     2.1027 H       
  60 H60            2.0919     0.9514     1.6715 H       
  61 H61            3.8756     4.1568     1.4553 H       
  62 H62            2.6160     6.5810     4.2218 H       
  63 H63            3.9841     5.5063     3.8451 H       
  64 H64            4.5800     7.8104     3.6415 H       
  65 C65           10.1072    14.6224    10.1048 C.3     
  66 O66           10.1266    13.1936    10.0970 O.3     
  67 H67           11.1298    14.9997    10.0971 H       
  68 H68            9.5800    14.9835     9.2218 H       
  69 H69            9.5970    14.9740    11.0016 H       
  70 H70           10.5663    12.8104     9.3256 H       
@<TRIPOS>BOND
   1    1    2 1
   2    1    6 1
   3    1   28 1
   4    1   29 1
   5    2    3 1
   6    2   30 1
   7    2   31 1
   8    3    4 1
   9    3   10 1
  10    3   32 1
  11    4    5 1
  12    4   13 1
  13    4   33 1
  14    5    6 1
  15    5    7 1
  16    5   34 1
  17    6   20 1
  18    6    9 1
  19    7    8 1
  20    7   35 1
  21    7   36 1
  22    8    9 1
  23    8   37 1
  24    8   38 1
  25    9   21 1
  26    9   39 1
  27   10   14 1
  28   10   18 1
  29   10   11 1
  30   11   12 1
  31   11   17 1
  32   11   40 1
  33   12   13 1
  34   12   41 1
  35   12   42 1
  36   13   43 1
  37   13   44 1
  38   14   15 1
  39   14   45 1
  40   14   46 1
  41   15   16 1
  42   15   47 1
  43   15   48 1
  44   16   17 1
  45   16   19 1
  46   16   49 1
  47   17   50 1
  48   17   51 1
  49   18   52 1
  50   18   53 1
  51   18   54 1
  52   19   55 1
  53   19   56 1
  54   19   57 1
  55   20   58 1
  56   20   59 1
  57   20   60 1
  58   21   22 2
  59   21   23 1
  60   22   25 1
  61   23   24 2
  62   23   61 1
  63   24   25 1
  64   24   26 1
  65   26   27 1
  66   26   62 1
  67   26   63 1
  68   27   64 1
  69   65   66 1
  70   65   67 1
  71   65   68 1
  72   65   69 1
  73   66   70 1

#	End of record

