#	Name: ASD02198089
#	Creating user name:	WinNT
#	Creation time:	15. 06. 2019 20:18

#	Modifying user name:	WinNT
#	Modification time:	15. 06. 2019 20:18

#	Program:	/corina/corina34_cracker 3.40 0067  02.08.2006

@<TRIPOS>MOLECULE
ASD02198089
  53   56    0    0    0
SMALL
NO_CHARGES


@<TRIPOS>ATOM
   1 C1            -0.0166     1.3753     0.0096 C.2     
   2 C2             0.0021    -0.0041     0.0020 C.2     
   3 C3            -1.1878    -0.8008     0.0083 C.1     
   4 S4             1.5675     2.0054    -0.0021 S.3     
   5 C5             2.2772     0.3990    -0.0175 C.2     
   6 C6             1.2824    -0.5520    -0.0132 C.2     
   7 C7             3.6579     0.1249    -0.0322 C.2     
   8 C8             4.6308     1.2351    -0.0350 C.2     
   9 O9             4.0505    -1.0301    -0.0426 O.2     
  10 N10            1.5294    -1.9154    -0.0224 N.pl3   
  11 N11           -1.1593     2.1393     0.0193 N.pl3   
  12 N12           -2.1317    -1.4328     0.0134 N.1     
  13 O13            4.3523     2.5520    -0.0242 O.3     
  14 N14            5.3580     3.2224    -0.0296 N.2     
  15 C15            6.4373     2.4802    -0.0443 C.2     
  16 C16            5.9935     1.1303    -0.0429 C.2     
  17 C17            7.8437     2.9548    -0.0546 C.ar    
  18 C18            8.1204     4.3201    -0.0483 C.ar    
  19 C19            9.4296     4.7572    -0.0575 C.ar    
  20 C20           10.4674     3.8417    -0.0734 C.ar    
  21 C21           10.1977     2.4824    -0.0797 C.ar    
  22 C22            8.8912     2.0360    -0.0649 C.ar    
  23 C23           -1.0630     3.6011     0.0268 C.3     
  24 C24           -3.6838     6.2830     0.2922 C.3     
  25 N25           -2.3723     5.6705     0.0444 N.3     
  26 C26           -2.4689     4.2047     0.0369 C.3     
  27 C27           -3.5215     7.7978     0.4378 C.3     
  28 C28           -2.9061     8.3658    -0.8441 C.3     
  29 C29           -1.5639     7.6768    -1.1053 C.3     
  30 C30           -1.7829     6.1655    -1.2061 C.3     
  31 Cl31          12.1118     4.3979    -0.0860 Cl      
  32 Cl32          11.5043     1.3395    -0.1003 Cl      
  33 H33            2.4424    -2.2428    -0.0326 H       
  34 H34            0.7893    -2.5424    -0.0187 H       
  35 H35           -2.0294     1.7105     0.0212 H       
  36 H36            6.5928     0.2318    -0.0525 H       
  37 H37            7.3116     5.0357    -0.0367 H       
  38 H38            9.6445     5.8156    -0.0526 H       
  39 H39            8.6814     0.9765    -0.0698 H       
  40 H40           -0.5221     3.9251     0.9159 H       
  41 H41           -0.5308     3.9347    -0.8640 H       
  42 H42           -4.3490     6.0677    -0.5440 H       
  43 H43           -4.1085     5.8735     1.2087 H       
  44 H44           -3.0098     3.8808    -0.8522 H       
  45 H45           -3.0011     3.8711     0.9277 H       
  46 H46           -4.4971     8.2538     0.6062 H       
  47 H47           -2.8674     8.0142     1.2824 H       
  48 H48           -3.5783     8.1837    -1.6826 H       
  49 H49           -2.7486     9.4381    -0.7284 H       
  50 H50           -1.1408     8.0463    -2.0394 H       
  51 H51           -0.8789     7.8913    -0.2850 H       
  52 H52           -0.8270     5.6707    -1.3779 H       
  53 H53           -2.4570     5.9508    -2.0353 H       
@<TRIPOS>BOND
   1    1    2 2
   2    1    4 1
   3    1   11 1
   4    2    3 1
   5    2    6 1
   6    3   12 3
   7    4    5 1
   8    5    6 2
   9    5    7 1
  10    6   10 1
  11    7    8 1
  12    7    9 2
  13    8   13 1
  14    8   16 2
  15   10   33 1
  16   10   34 1
  17   11   23 1
  18   11   35 1
  19   13   14 1
  20   14   15 2
  21   15   16 1
  22   15   17 1
  23   16   36 1
  24   17   18 ar
  25   17   22 ar
  26   18   19 ar
  27   18   37 1
  28   19   20 ar
  29   19   38 1
  30   20   21 ar
  31   20   31 1
  32   21   22 ar
  33   21   32 1
  34   22   39 1
  35   23   26 1
  36   23   40 1
  37   23   41 1
  38   24   25 1
  39   24   27 1
  40   24   42 1
  41   24   43 1
  42   25   26 1
  43   25   30 1
  44   26   44 1
  45   26   45 1
  46   27   28 1
  47   27   46 1
  48   27   47 1
  49   28   29 1
  50   28   48 1
  51   28   49 1
  52   29   30 1
  53   29   50 1
  54   29   51 1
  55   30   52 1
  56   30   53 1

#	End of record

