#	Name: ASD01900425
#	Creating user name:	WinNT
#	Creation time:	15. 06. 2019 19:51

#	Modifying user name:	WinNT
#	Modification time:	15. 06. 2019 19:51

#	Program:	/corina/corina34_cracker 3.40 0067  02.08.2006

@<TRIPOS>MOLECULE
ASD01900425
  25   26    0    0    0
SMALL
NO_CHARGES


@<TRIPOS>ATOM
   1 N1            -0.0169     1.3967     0.0097 N.pl3   
   2 N2             0.0021    -0.0041     0.0020 N.2     
   3 C3             1.2506    -0.3963    -0.0120 C.2     
   4 C4             2.0668     0.7402    -0.0137 C.2     
   5 C5             1.2641     1.8296    -0.0002 C.2     
   6 C6            -1.1613     2.2062     0.0198 C.ar    
   7 C7            -2.4228     1.6267     0.0234 C.ar    
   8 C8            -3.5500     2.4284     0.0339 C.ar    
   9 C9            -3.4194     3.8075     0.0407 C.ar    
  10 C10           -2.1637     4.3851     0.0371 C.ar    
  11 C11           -1.0349     3.5886     0.0320 C.ar    
  12 S12           -4.8565     4.8269     0.0534 S.o2    
  13 O13           -5.6377     4.3181     1.1258 O.2     
  14 O14           -4.3456     6.1525     0.0837 O.2     
  15 C15           -5.6632     4.4919    -1.5365 C.3     
  16 F16           -4.7784     1.8662     0.0370 F       
  17 H17            1.5921    -1.4208    -0.0208 H       
  18 H18            3.1467     0.7469    -0.0237 H       
  19 H19            1.5884     2.8598     0.0019 H       
  20 H20           -2.5240     0.5515     0.0178 H       
  21 H21           -2.0649     5.4606     0.0424 H       
  22 H22           -0.0544     4.0414     0.0333 H       
  23 H23           -5.9157     3.4334    -1.5999 H       
  24 H24           -6.5726     5.0877    -1.6152 H       
  25 H25           -4.9861     4.7533    -2.3497 H       
@<TRIPOS>BOND
   1    1    2 1
   2    1    5 1
   3    1    6 1
   4    2    3 2
   5    3    4 1
   6    3   17 1
   7    4    5 2
   8    4   18 1
   9    5   19 1
  10    6    7 ar
  11    6   11 ar
  12    7    8 ar
  13    7   20 1
  14    8    9 ar
  15    8   16 1
  16    9   10 ar
  17    9   12 1
  18   10   11 ar
  19   10   21 1
  20   11   22 1
  21   12   13 2
  22   12   14 2
  23   12   15 1
  24   15   23 1
  25   15   24 1
  26   15   25 1

#	End of record

