#	Name: ASD03081107
#	Creating user name:	WinNT
#	Creation time:	15. 06. 2019 20:26

#	Modifying user name:	WinNT
#	Modification time:	15. 06. 2019 20:26

#	Program:	/corina/corina34_cracker 3.40 0067  02.08.2006

@<TRIPOS>MOLECULE
ASD03081107
  16   16    0    0    0
SMALL
NO_CHARGES


@<TRIPOS>ATOM
   1 C1            -0.0169     1.3939     0.0097 C.ar    
   2 C2             0.0021    -0.0041     0.0020 C.ar    
   3 C3             1.2514    -0.6384    -0.0133 C.ar    
   4 C4             2.3825     0.1616    -0.0198 C.ar    
   5 N5             2.2608     1.4748    -0.0116 N.ar    
   6 N6             1.1204     2.0619     0.0024 N.ar    
   7 C7            -1.2542    -0.7870     0.0103 C.2     
   8 O8            -1.2134    -2.0006     0.0034 O.2     
   9 O9            -2.4425    -0.1534     0.0255 O.3     
  10 C10           -3.6329    -0.9848     0.0328 C.3     
  11 H11           -0.9578     1.9240     0.0171 H       
  12 H12            1.3299    -1.7155    -0.0195 H       
  13 H13            3.3635    -0.2900    -0.0313 H       
  14 H14           -3.6277    -1.6188     0.9194 H       
  15 H15           -4.5191    -0.3503     0.0450 H       
  16 H16           -3.6454    -1.6093    -0.8604 H       
@<TRIPOS>BOND
   1    1    2 ar
   2    1    6 ar
   3    1   11 1
   4    2    3 ar
   5    2    7 1
   6    3    4 ar
   7    3   12 1
   8    4    5 ar
   9    4   13 1
  10    5    6 ar
  11    7    8 2
  12    7    9 1
  13    9   10 1
  14   10   14 1
  15   10   15 1
  16   10   16 1

#	End of record

