#	Name: ASD02038124
#	Creating user name:	WinNT
#	Creation time:	15. 06. 2019 20:16

#	Modifying user name:	WinNT
#	Modification time:	15. 06. 2019 20:16

#	Program:	/corina/corina34_cracker 3.40 0067  02.08.2006

@<TRIPOS>MOLECULE
ASD02038124
  48   50    0    0    0
SMALL
NO_CHARGES


@<TRIPOS>ATOM
   1 C1            -0.1691     1.1571     0.1079 C.ar    
   2 C2            -0.0903    -0.2187    -0.0057 C.ar    
   3 C3             0.9869     1.9143     0.1990 C.ar    
   4 C4             2.2237     1.2950     0.1758 C.ar    
   5 C5             2.3040    -0.0865     0.0617 C.ar    
   6 C6             1.1416    -0.8423    -0.0289 C.ar    
   7 N7             3.5510    -0.7152     0.0380 N.3     
   8 C8             6.8876    -3.1302     0.9769 C.3     
   9 C9             6.6977    -4.6440     1.0925 C.3     
  10 C10            8.0524    -5.3404     0.9481 C.3     
  11 O11            6.1347    -4.9574     2.3680 O.3     
  12 O12            7.8614    -6.7565     0.9394 O.3     
  13 C13            8.9740    -7.5288     0.8168 C.ar    
  14 C14            8.8605    -8.9110     0.8013 C.ar    
  15 C15            9.9906    -9.6954     0.6769 C.ar    
  16 C16           11.2388    -9.1008     0.5671 C.ar    
  17 C17           11.3523    -7.7186     0.5817 C.ar    
  18 C18           10.2217    -6.9341     0.7017 C.ar    
  19 O19           12.3515    -9.8731     0.4455 O.3     
  20 C20            3.4039    -2.1720    -0.0878 C.3     
  21 C21            4.7891    -2.8149    -0.1900 C.3     
  22 N22            5.5761    -2.4689     1.0018 N.3     
  23 C23            5.7232    -1.0121     1.1276 C.3     
  24 C24            4.3380    -0.3692     1.2298 C.3     
  25 F25            0.9067     3.2584     0.3100 F       
  26 H26           -1.1338     1.6424     0.1213 H       
  27 H27           -0.9936    -0.8065    -0.0761 H       
  28 H28            3.1255     1.8851     0.2461 H       
  29 H29            1.2015    -1.9170    -0.1174 H       
  30 H30            7.4897    -2.7746     1.8130 H       
  31 H31            7.3938    -2.8981     0.0399 H       
  32 H32            6.0269    -4.9872     0.3050 H       
  33 H33            8.5220    -5.0314     0.0142 H       
  34 H34            8.6934    -5.0654     1.7856 H       
  35 H35            6.6794    -4.6800     3.1173 H       
  36 H36            7.8885    -9.3740     0.8868 H       
  37 H37            9.9023   -10.7718     0.6655 H       
  38 H38           12.3242    -7.2556     0.4962 H       
  39 H39           10.3100    -5.8577     0.7131 H       
  40 H40           12.5884   -10.0804    -0.4688 H       
  41 H41            2.8857    -2.5622     0.7882 H       
  42 H42            2.8285    -2.4034    -0.9842 H       
  43 H43            4.6835    -3.8979    -0.2543 H       
  44 H44            5.2967    -2.4453    -1.0810 H       
  45 H45            6.2985    -0.7808     2.0240 H       
  46 H46            6.2414    -0.6220     0.2516 H       
  47 H47            4.4436     0.7138     1.2941 H       
  48 H48            3.8304    -0.7389     2.1208 H       
@<TRIPOS>BOND
   1    1    2 ar
   2    1    3 ar
   3    1   26 1
   4    2    6 ar
   5    2   27 1
   6    3    4 ar
   7    3   25 1
   8    4    5 ar
   9    4   28 1
  10    5    6 ar
  11    5    7 1
  12    6   29 1
  13    7   20 1
  14    7   24 1
  15    8    9 1
  16    8   22 1
  17    8   30 1
  18    8   31 1
  19    9   11 1
  20    9   10 1
  21    9   32 1
  22   10   12 1
  23   10   33 1
  24   10   34 1
  25   11   35 1
  26   12   13 1
  27   13   14 ar
  28   13   18 ar
  29   14   15 ar
  30   14   36 1
  31   15   16 ar
  32   15   37 1
  33   16   17 ar
  34   16   19 1
  35   17   18 ar
  36   17   38 1
  37   18   39 1
  38   19   40 1
  39   20   21 1
  40   20   41 1
  41   20   42 1
  42   21   22 1
  43   21   43 1
  44   21   44 1
  45   22   23 1
  46   23   24 1
  47   23   45 1
  48   23   46 1
  49   24   47 1
  50   24   48 1

#	End of record

