#	Name: ASD01913057
#	Creating user name:	WinNT
#	Creation time:	15. 06. 2019 20:00

#	Modifying user name:	WinNT
#	Modification time:	15. 06. 2019 20:00

#	Program:	/corina/corina34_cracker 3.40 0067  02.08.2006

@<TRIPOS>MOLECULE
ASD01913057
  32   33    0    0    0
SMALL
NO_CHARGES


@<TRIPOS>ATOM
   1 C1            -0.0169     1.3945     0.0097 C.ar    
   2 C2             0.0021    -0.0041     0.0020 C.ar    
   3 C3            -1.2600    -0.7609     0.0095 C.2     
   4 C4            -2.5774    -0.0292     0.0255 C.3     
   5 O5            -1.2400    -1.9733     0.0028 O.2     
   6 C6            -3.7064    -1.0274     0.0305 C.2     
   7 C7            -5.1018    -0.5599     0.0458 C.ar    
   8 O8            -3.4651    -2.2156     0.0219 O.2     
   9 C9            -6.1523    -1.4831     0.0505 C.ar    
  10 C10            1.2264    -0.6794    -0.0133 C.ar    
  11 C11            2.4048     0.0370    -0.0207 C.ar    
  12 C12            2.3777     1.4206    -0.0130 C.ar    
  13 C13            1.1697     2.0964     0.0021 C.ar    
  14 C14           -7.4570    -1.0372     0.0653 C.ar    
  15 C15           -7.7282     0.3200     0.0751 C.ar    
  16 C16           -6.6941     1.2398     0.0701 C.ar    
  17 C17           -5.3841     0.8097     0.0616 C.ar    
  18 C18            3.7255    -0.6887    -0.0367 C.3     
  19 H19           -0.9586     1.9232     0.0171 H       
  20 H20           -2.6373     0.5916     0.9194 H       
  21 H21           -2.6536     0.6012    -0.8604 H       
  22 H22           -5.9422    -2.5424     0.0421 H       
  23 H23            1.2492    -1.7591    -0.0190 H       
  24 H24            3.3039     1.9760    -0.0189 H       
  25 H25            1.1567     3.1763     0.0077 H       
  26 H26           -8.2694    -1.7488     0.0689 H       
  27 H27           -8.7522     0.6630     0.0864 H       
  28 H28           -6.9138     2.2972     0.0771 H       
  29 H29           -4.5782     1.5287     0.0577 H       
  30 H30            4.0343    -0.8585    -1.0682 H       
  31 H31            4.4773    -0.0863     0.4732 H       
  32 H32            3.6201    -1.6462     0.4733 H       
@<TRIPOS>BOND
   1    1    2 ar
   2    1   13 ar
   3    1   19 1
   4    2    3 1
   5    2   10 ar
   6    3    4 1
   7    3    5 2
   8    4    6 1
   9    4   20 1
  10    4   21 1
  11    6    7 1
  12    6    8 2
  13    7    9 ar
  14    7   17 ar
  15    9   14 ar
  16    9   22 1
  17   10   11 ar
  18   10   23 1
  19   11   12 ar
  20   11   18 1
  21   12   13 ar
  22   12   24 1
  23   13   25 1
  24   14   15 ar
  25   14   26 1
  26   15   16 ar
  27   15   27 1
  28   16   17 ar
  29   16   28 1
  30   17   29 1
  31   18   30 1
  32   18   31 1
  33   18   32 1

#	End of record

