#	Name: ASD00311506
#	Creating user name:	WinNT
#	Creation time:	15. 06. 2019 18:34

#	Modifying user name:	WinNT
#	Modification time:	15. 06. 2019 18:34

#	Program:	/corina/corina34_cracker 3.40 0067  02.08.2006

@<TRIPOS>MOLECULE
ASD00311506
  49   53    0    0    0
SMALL
NO_CHARGES


@<TRIPOS>ATOM
   1 C1            -0.0169     1.3917     0.0097 C.ar    
   2 C2             0.0021    -0.0041     0.0020 C.ar    
   3 C3             1.2026    -0.6763    -0.0126 C.ar    
   4 C4             2.4037     0.0391    -0.0202 C.ar    
   5 C5             2.3835     1.4370    -0.0129 C.ar    
   6 C6             1.1818     2.1071     0.0021 C.ar    
   7 C7            -1.3099     2.1143     0.0197 C.ar    
   8 C8            -1.3294     3.5099     0.0274 C.ar    
   9 C9            -2.5310     4.1815     0.0372 C.ar    
  10 C10           -3.7301     3.4667     0.0390 C.ar    
  11 C11           -3.7105     2.0709     0.0308 C.ar    
  12 C12           -2.5087     1.3996     0.0157 C.ar    
  13 C13            3.6916    -0.6806    -0.0353 C.2     
  14 O14            3.7086    -1.8954    -0.0412 O.2     
  15 O15            4.8489     0.0095    -0.0427 O.3     
  16 C16           -7.2093     4.6954    -0.6820 C.2     
  17 C17           -6.1041     3.8918    -0.8874 C.2     
  18 C18           -6.1418     2.9204    -1.9298 C.2     
  19 C19           -7.2828     2.8028    -2.7129 C.2     
  20 C20           -8.3836     3.6472    -2.4620 C.2     
  21 N21           -8.3289     4.5560    -1.4762 N.am    
  22 C22           -5.0226     4.1890     0.0500 C.2     
  23 C23           -5.2974     5.1635     0.9150 C.2     
  24 S24           -6.9062     5.8061     0.6499 S.3     
  25 C25           -7.3424     1.8002    -3.8015 C.ar    
  26 C26           -8.2482     0.7421    -3.7301 C.ar    
  27 C27           -8.2990    -0.1888    -4.7473 C.ar    
  28 C28           -7.4534    -0.0744    -5.8363 C.ar    
  29 C29           -6.5527     0.9730    -5.9129 C.ar    
  30 C30           -6.4968     1.9136    -4.9049 C.ar    
  31 O31           -9.3903     3.5517    -3.1448 O.2     
  32 O32           -5.0743     2.1194    -2.1550 O.3     
  33 H33           -0.9259    -0.5565     0.0079 H       
  34 H34            1.2170    -1.7562    -0.0178 H       
  35 H35            3.3108     1.9906    -0.0188 H       
  36 H36            1.1660     3.1870     0.0080 H       
  37 H37           -0.4017     4.0628     0.0260 H       
  38 H38           -2.5461     5.2614     0.0438 H       
  39 H39           -4.6381     1.5178     0.0322 H       
  40 H40           -2.4935     0.3197     0.0053 H       
  41 H41            5.6672    -0.5058    -0.0526 H       
  42 H42           -9.0957     5.1285    -1.3174 H       
  43 H43           -4.6172     5.5140     1.6771 H       
  44 H44           -8.9083     0.6513    -2.8801 H       
  45 H45           -9.0000    -1.0086    -4.6931 H       
  46 H46           -7.4963    -0.8058    -6.6297 H       
  47 H47           -5.8949     1.0568    -6.7653 H       
  48 H48           -5.7966     2.7335    -4.9681 H       
  49 H49           -5.1978     1.4947    -2.8827 H       
@<TRIPOS>BOND
   1    1    2 ar
   2    1    6 ar
   3    1    7 1
   4    2    3 ar
   5    2   33 1
   6    3    4 ar
   7    3   34 1
   8    4    5 ar
   9    4   13 1
  10    5    6 ar
  11    5   35 1
  12    6   36 1
  13    7    8 ar
  14    7   12 ar
  15    8    9 ar
  16    8   37 1
  17    9   10 ar
  18    9   38 1
  19   10   11 ar
  20   10   22 1
  21   11   12 ar
  22   11   39 1
  23   12   40 1
  24   13   14 2
  25   13   15 1
  26   15   41 1
  27   16   17 2
  28   16   21 1
  29   16   24 1
  30   17   18 1
  31   17   22 1
  32   18   19 2
  33   18   32 1
  34   19   20 1
  35   19   25 1
  36   20   21 am
  37   20   31 2
  38   21   42 1
  39   22   23 2
  40   23   24 1
  41   23   43 1
  42   25   26 ar
  43   25   30 ar
  44   26   27 ar
  45   26   44 1
  46   27   28 ar
  47   27   45 1
  48   28   29 ar
  49   28   46 1
  50   29   30 ar
  51   29   47 1
  52   30   48 1
  53   32   49 1

#	End of record

