#	Name: ASD03092114
#	Creating user name:	WinNT
#	Creation time:	15. 06. 2019 20:32

#	Modifying user name:	WinNT
#	Modification time:	15. 06. 2019 20:32

#	Program:	/corina/corina34_cracker 3.40 0067  02.08.2006

@<TRIPOS>MOLECULE
ASD03092114
  50   53    0    0    0
SMALL
NO_CHARGES


@<TRIPOS>ATOM
   1 N1             0.1274     1.3352     0.0455 N.am    
   2 C2            -0.0120    -0.0275    -0.0082 C.2     
   3 C3            -1.3473    -0.2985    -0.0529 C.2     
   4 C4            -2.0353     0.9253    -0.0258 C.2     
   5 N5            -1.1557     1.8969     0.0389 N.2     
   6 N6            -3.4236     1.0819    -0.0561 N.pl3   
   7 C7            -3.9873     2.3528     0.0949 C.ar    
   8 C8            -5.2419     2.6244    -0.4351 C.ar    
   9 C9            -5.7968     3.8805    -0.2848 C.ar    
  10 C10           -5.1031     4.8682     0.3936 C.ar    
  11 C11           -3.2957     3.3437     0.7801 C.ar    
  12 C12            1.0840    -1.0203    -0.0163 C.ar    
  13 C13            1.2909     2.0131     0.1007 C.2     
  14 C14            0.9597    -2.2344     0.6690 C.ar    
  15 C15            2.0065    -3.1319     0.6345 C.ar    
  16 N16            3.1120    -2.8582    -0.0319 N.ar    
  17 C17            3.2703    -1.7261    -0.6909 C.ar    
  18 C18            2.2721    -0.7745    -0.7141 C.ar    
  19 C19            4.5571    -1.4717    -1.4329 C.3     
  20 C20           -3.8516     4.5997     0.9225 C.ar    
  21 N21            1.2903     3.3592     0.0352 N.am    
  22 O22            2.3406     1.4106     0.2094 O.2     
  23 C23            2.5550     4.0961     0.0951 C.3     
  24 C24            1.8862    -4.4426     1.3682 C.3     
  25 C25            2.5944     5.4851    -0.5453 C.3     
  26 C26            2.6041     5.3446     0.9782 C.3     
  27 F27           -5.6477     6.0959     0.5393 F       
  28 C28           -7.1579     4.1760    -0.8600 C.3     
  29 F29           -7.6546     3.0322    -1.4941 F       
  30 F30           -8.0272     4.5534     0.1691 F       
  31 F31           -7.0556     5.2169    -1.7891 F       
  32 H32           -1.7960    -1.2796    -0.1009 H       
  33 H33           -3.9962     0.3091    -0.1818 H       
  34 H34           -5.7832     1.8544    -0.9646 H       
  35 H35           -2.3219     3.1333     1.1971 H       
  36 H36            0.0579    -2.4649     1.2167 H       
  37 H37            2.4085     0.1498    -1.2559 H       
  38 H38            4.4679    -1.8445    -2.4533 H       
  39 H39            4.7589    -0.4008    -1.4536 H       
  40 H40            5.3751    -1.9860    -0.9284 H       
  41 H41           -3.3121     5.3719     1.4506 H       
  42 H42            0.4524     3.8402    -0.0517 H       
  43 H43            3.4571     3.4875     0.0329 H       
  44 H44            1.4573    -5.1929     0.7040 H       
  45 H45            2.8739    -4.7684     1.6945 H       
  46 H46            1.2405    -4.3148     2.2370 H       
  47 H47            3.5226     5.7904    -1.0284 H       
  48 H48            1.6793     5.8506    -1.0112 H       
  49 H49            1.6953     5.6177     1.5146 H       
  50 H50            3.5386     5.5574     1.4974 H       
@<TRIPOS>BOND
   1    1    2 1
   2    1   13 am
   3    1    5 1
   4    2    3 2
   5    2   12 1
   6    3    4 1
   7    3   32 1
   8    4    5 2
   9    4    6 1
  10    6    7 1
  11    6   33 1
  12    7    8 ar
  13    7   11 ar
  14    8    9 ar
  15    8   34 1
  16    9   10 ar
  17    9   28 1
  18   10   20 ar
  19   10   27 1
  20   11   20 ar
  21   11   35 1
  22   12   14 ar
  23   12   18 ar
  24   13   21 am
  25   13   22 2
  26   14   15 ar
  27   14   36 1
  28   15   16 ar
  29   15   24 1
  30   16   17 ar
  31   17   18 ar
  32   17   19 1
  33   18   37 1
  34   19   38 1
  35   19   39 1
  36   19   40 1
  37   20   41 1
  38   21   23 1
  39   21   42 1
  40   23   25 1
  41   23   26 1
  42   23   43 1
  43   24   44 1
  44   24   45 1
  45   24   46 1
  46   25   26 1
  47   25   47 1
  48   25   48 1
  49   26   49 1
  50   26   50 1
  51   28   29 1
  52   28   30 1
  53   28   31 1

#	End of record

