#	Name: ASD01230418
#	Creating user name:	WinNT
#	Creation time:	15. 06. 2019 19:14

#	Modifying user name:	WinNT
#	Modification time:	15. 06. 2019 19:14

#	Program:	/corina/corina34_cracker 3.40 0067  02.08.2006

@<TRIPOS>MOLECULE
ASD01230418
  32   33    0    0    0
SMALL
NO_CHARGES


@<TRIPOS>ATOM
   1 C1            -0.0169     1.3980     0.0097 C.ar    
   2 C2             0.0021    -0.0041     0.0020 C.ar    
   3 C3             1.2325    -0.6605    -0.0132 C.ar    
   4 C4             2.3881     0.1052    -0.0201 C.ar    
   5 C5             2.2900     1.4831    -0.0118 C.ar    
   6 N6             1.1147     2.0833     0.0026 N.ar    
   7 N7            -1.2306     2.0711     0.0191 N.pl3   
   8 C8            -1.2643    -0.7756     0.0104 C.ar    
   9 C9            -1.4677    -1.7964    -0.9166 C.ar    
  10 C10           -2.6483    -2.5110    -0.9041 C.ar    
  11 C11           -3.6287    -2.2160     0.0261 C.ar    
  12 C12           -3.4325    -1.2037     0.9482 C.ar    
  13 C13           -2.2533    -0.4865     0.9491 C.ar    
  14 C14           -4.9157    -3.0000     0.0346 C.3     
  15 C15           -5.0812    -3.6939     1.3881 C.3     
  16 C16           -6.0926    -2.0508    -0.1992 C.3     
  17 H17            1.2838    -1.7392    -0.0192 H       
  18 H18            3.3571    -0.3716    -0.0316 H       
  19 H19            3.1905     2.0793    -0.0172 H       
  20 H20           -2.0622     1.5717     0.0203 H       
  21 H21           -1.2474     3.0409     0.0245 H       
  22 H22           -0.7031    -2.0274    -1.6435 H       
  23 H23           -2.8072    -3.3019    -1.6222 H       
  24 H24           -4.2016    -0.9771     1.6717 H       
  25 H25           -2.0992     0.3004     1.6725 H       
  26 H26           -4.8901    -3.7489    -0.7570 H       
  27 H27           -6.0120    -4.2610     1.3943 H       
  28 H28           -4.2427    -4.3701     1.5546 H       
  29 H29           -5.1067    -2.9450     2.1796 H       
  30 H30           -5.9747    -1.5564    -1.1635 H       
  31 H31           -7.0235    -2.6178    -0.1930 H       
  32 H32           -6.1182    -1.3018     0.5924 H       
@<TRIPOS>BOND
   1    1    2 ar
   2    1    6 ar
   3    1    7 1
   4    2    3 ar
   5    2    8 1
   6    3    4 ar
   7    3   17 1
   8    4    5 ar
   9    4   18 1
  10    5    6 ar
  11    5   19 1
  12    7   20 1
  13    7   21 1
  14    8    9 ar
  15    8   13 ar
  16    9   10 ar
  17    9   22 1
  18   10   11 ar
  19   10   23 1
  20   11   12 ar
  21   11   14 1
  22   12   13 ar
  23   12   24 1
  24   13   25 1
  25   14   15 1
  26   14   16 1
  27   14   26 1
  28   15   27 1
  29   15   28 1
  30   15   29 1
  31   16   30 1
  32   16   31 1
  33   16   32 1

#	End of record

