#	Name: ASD01913789
#	Creating user name:	WinNT
#	Creation time:	15. 06. 2019 20:02

#	Modifying user name:	WinNT
#	Modification time:	15. 06. 2019 20:02

#	Program:	/corina/corina34_cracker 3.40 0067  02.08.2006

@<TRIPOS>MOLECULE
ASD01913789
  39   41    0    0    0
SMALL
NO_CHARGES


@<TRIPOS>ATOM
   1 C1            -0.0099     1.3652    -0.1772 C.ar    
   2 C2            -0.0014     0.0031     0.0668 C.ar    
   3 C3             1.1926    -0.6591     0.2919 C.ar    
   4 C4             2.3841     0.0353     0.2745 C.ar    
   5 C5             2.3835     1.4109     0.0283 C.ar    
   6 C6             1.1737     2.0728    -0.1980 C.ar    
   7 C7             3.6165     2.1389     0.0091 C.1     
   8 C8             4.6273     2.7358    -0.0066 C.1     
   9 C9             5.8603     3.4638    -0.0258 C.ar    
  10 C10            5.8681     4.8449    -0.2722 C.ar    
  11 C11            8.2483     4.7810    -0.0454 C.ar    
  12 N12            8.2080     3.4781     0.1895 N.ar    
  13 C13            7.0728     2.8107     0.2062 C.ar    
  14 C14            7.0817     5.5026    -0.2800 C.ar    
  15 N15            9.4755     5.4395    -0.0514 N.am    
  16 C16            9.6432     6.7685    -0.0454 C.2     
  17 N17           10.9260     7.1539    -0.0534 N.am    
  18 C18           11.7883     5.9628    -0.0668 C.3     
  19 C19           10.7930     4.7863    -0.0591 C.3     
  20 O20            8.7151     7.5537    -0.0340 O.2     
  21 C21           12.6487     5.9369    -1.3317 C.3     
  22 C22           12.6686     5.9229     1.1840 C.3     
  23 H23           -0.9452     1.8746    -0.3561 H       
  24 H24           -0.9314    -0.5458     0.0820 H       
  25 H25            1.1915    -1.7222     0.4820 H       
  26 H26            3.3152    -0.4826     0.4510 H       
  27 H27            1.1657     3.1358    -0.3889 H       
  28 H28            4.9474     5.3802    -0.4516 H       
  29 H29            7.0796     1.7485     0.4015 H       
  30 H30            7.1254     6.5655    -0.4666 H       
  31 H31           11.2368     8.0728    -0.0507 H       
  32 H32           10.9289     4.1760     0.8337 H       
  33 H33           10.9086     4.1815    -0.9585 H       
  34 H34           13.2944     6.8149    -1.3500 H       
  35 H35           13.2611     5.0353    -1.3362 H       
  36 H36           12.0034     5.9422    -2.2102 H       
  37 H37           12.0373     5.9183     2.0726 H       
  38 H38           13.2809     5.0213     1.1687 H       
  39 H39           13.3146     6.8007     1.2018 H       
@<TRIPOS>BOND
   1    1    2 ar
   2    1    6 ar
   3    1   23 1
   4    2    3 ar
   5    2   24 1
   6    3    4 ar
   7    3   25 1
   8    4    5 ar
   9    4   26 1
  10    5    6 ar
  11    5    7 1
  12    6   27 1
  13    7    8 3
  14    8    9 1
  15    9   10 ar
  16    9   13 ar
  17   10   14 ar
  18   10   28 1
  19   11   12 ar
  20   11   15 1
  21   11   14 ar
  22   12   13 ar
  23   13   29 1
  24   14   30 1
  25   15   16 am
  26   15   19 1
  27   16   17 am
  28   16   20 2
  29   17   18 1
  30   17   31 1
  31   18   19 1
  32   18   21 1
  33   18   22 1
  34   19   32 1
  35   19   33 1
  36   21   34 1
  37   21   35 1
  38   21   36 1
  39   22   37 1
  40   22   38 1
  41   22   39 1

#	End of record

