#	Name: ASD00840735
#	Creating user name:	WinNT
#	Creation time:	15. 06. 2019 18:39

#	Modifying user name:	WinNT
#	Modification time:	15. 06. 2019 18:39

#	Program:	/corina/corina34_cracker 3.40 0067  02.08.2006

@<TRIPOS>MOLECULE
ASD00840735
  87   92    0    0    0
SMALL
NO_CHARGES


@<TRIPOS>ATOM
   1 N1             1.0652     1.4645    -0.7436 N.ar    
   2 C2             1.3276     0.1732    -0.8552 C.ar    
   3 C3             1.2494    -0.6632     0.2513 C.ar    
   4 C4             0.8924    -0.1275     1.4762 C.ar    
   5 C5             0.6250     1.2327     1.5514 C.ar    
   6 C6             0.7224     2.0042     0.4108 C.ar    
   7 C7             1.5488    -2.1342     0.1192 C.3     
   8 C8             1.2681    -2.8517     1.4224 C.2     
   9 C9             0.7281    -2.7469    -1.0175 C.3     
  10 C10           -0.7340    -2.4590    -0.7932 C.2     
  11 N11           -1.6585    -2.9785    -1.6249 N.am    
  12 O12           -1.0788    -1.7597     0.1358 O.2     
  13 C13           -3.0761    -2.6179    -1.4875 C.3     
  14 C14           -3.9029    -3.9026    -1.3736 C.3     
  15 C15           -3.5978    -4.8084    -2.5688 C.3     
  16 C16           -2.1147    -5.1860    -2.5594 C.3     
  17 C17           -1.2669    -3.9116    -2.6902 C.3     
  18 N18           -4.4136    -6.0269    -2.4803 N.3     
  19 C19           -4.2355    -6.8676    -3.6724 C.3     
  20 C20           -5.0379    -8.1603    -3.5061 C.3     
  21 N21           -6.4558    -7.8312    -3.3043 N.3     
  22 C22           -6.6338    -6.9905    -2.1122 C.3     
  23 C23           -5.8315    -5.6978    -2.2785 C.3     
  24 C24           -7.2716    -9.0497    -3.2158 C.3     
  25 O25            0.1966    -2.9301     1.9852 O.2     
  26 N26            2.4289    -3.3855     1.8383 N.am    
  27 C27            3.0261    -2.3553    -0.1117 C.ar    
  28 C28            3.4804    -3.1127     0.9607 C.ar    
  29 C29            3.8857    -1.9615    -1.1123 C.ar    
  30 C30            5.6878    -3.0762     0.0091 C.ar    
  31 C31            4.8254    -3.4714     1.0124 C.ar    
  32 Cl32           7.3624    -3.5279     0.0819 Cl      
  33 C33            2.3022    -5.9535     2.8199 C.ar    
  34 C34            3.3547    -6.7603     2.4287 C.ar    
  35 C35            1.0221    -6.4708     2.8942 C.ar    
  36 C36            0.7917    -7.7955     2.5775 C.ar    
  37 C37            1.8460    -8.6071     2.1847 C.ar    
  38 C38            3.1295    -8.0856     2.1105 C.ar    
  39 O39            1.6220    -9.9108     1.8731 O.3     
  40 H40            4.3537    -6.3539     2.3715 H       
  41 C41            2.7545   -10.6869     1.4767 C.3     
  42 C42            5.2229    -2.3216    -1.0559 C.ar    
  43 F43            6.0701    -1.9378    -2.0358 F       
  44 O44            1.6761    -0.3398    -2.0619 O.3     
  45 C45            2.1648    -0.1706    -4.4227 C.3     
  46 C46            1.6309     0.5471    -3.1814 C.3     
  47 S47            2.5939    -4.2653     3.2315 S.o2    
  48 O48            3.9621    -4.1738     3.6043 O.2     
  49 O49            1.5280    -3.8702     4.0841 O.2     
  50 H50            0.8231    -0.7534     2.3536 H       
  51 H51            0.3434     1.6823     2.4921 H       
  52 H52            0.5157     3.0629     0.4640 H       
  53 H53            1.0423    -2.3135    -1.9670 H       
  54 H54            0.8868    -3.8251    -1.0400 H       
  55 H55           -3.2142    -2.0139    -0.5907 H       
  56 H56           -3.3963    -2.0538    -2.3635 H       
  57 H57           -3.6453    -4.4203    -0.4497 H       
  58 H58           -4.9639    -3.6531    -1.3678 H       
  59 H59           -3.8323    -4.2810    -3.4934 H       
  60 H60           -1.8740    -5.6917    -1.6243 H       
  61 H61           -1.9030    -5.8500    -3.3975 H       
  62 H62           -1.4408    -3.4555    -3.6649 H       
  63 H63           -0.2114    -4.1624    -2.5849 H       
  64 H64           -4.5895    -6.3306    -4.5524 H       
  65 H65           -3.1793    -7.1082    -3.7933 H       
  66 H66           -4.9305    -8.7727    -4.4014 H       
  67 H67           -4.6657    -8.7107    -2.6420 H       
  68 H68           -7.6901    -6.7499    -1.9913 H       
  69 H69           -6.2798    -7.5275    -1.2322 H       
  70 H70           -5.9388    -5.0854    -1.3832 H       
  71 H71           -6.2037    -5.1474    -3.1426 H       
  72 H72           -6.9304    -9.6551    -2.3761 H       
  73 H73           -8.3164    -8.7773    -3.0665 H       
  74 H74           -7.1733    -9.6206    -4.1390 H       
  75 H75            3.5186    -1.3732    -1.9402 H       
  76 H76            5.1948    -4.0589     1.8400 H       
  77 H77            0.2017    -5.8387     3.2004 H       
  78 H78           -0.2083    -8.1992     2.6361 H       
  79 H79            3.9520    -8.7155     1.8053 H       
  80 H80            3.2036   -10.2461     0.5867 H       
  81 H81            3.4864   -10.7004     2.2843 H       
  82 H82            2.4374   -11.7063     1.2567 H       
  83 H83            2.2122     0.5307    -5.2557 H       
  84 H84            3.1625    -0.5585    -4.2170 H       
  85 H85            1.5001    -0.9954    -4.6795 H       
  86 H86            0.6012     0.8587    -3.3567 H       
  87 H87            2.2456     1.4234    -2.9758 H       
@<TRIPOS>BOND
   1    1    2 ar
   2    1    6 ar
   3    2    3 ar
   4    2   44 1
   5    3    4 ar
   6    3    7 1
   7    4    5 ar
   8    4   50 1
   9    5    6 ar
  10    5   51 1
  11    6   52 1
  12    7    8 1
  13    7    9 1
  14    7   27 1
  15    8   25 2
  16    8   26 am
  17    9   10 1
  18    9   53 1
  19    9   54 1
  20   10   11 am
  21   10   12 2
  22   11   13 1
  23   11   17 1
  24   13   14 1
  25   13   55 1
  26   13   56 1
  27   14   15 1
  28   14   57 1
  29   14   58 1
  30   15   16 1
  31   15   18 1
  32   15   59 1
  33   16   17 1
  34   16   60 1
  35   16   61 1
  36   17   62 1
  37   17   63 1
  38   18   19 1
  39   18   23 1
  40   19   20 1
  41   19   64 1
  42   19   65 1
  43   20   21 1
  44   20   66 1
  45   20   67 1
  46   21   22 1
  47   21   24 1
  48   22   23 1
  49   22   68 1
  50   22   69 1
  51   23   70 1
  52   23   71 1
  53   24   72 1
  54   24   73 1
  55   24   74 1
  56   26   47 am
  57   26   28 1
  58   27   28 ar
  59   27   29 ar
  60   28   31 ar
  61   29   42 ar
  62   29   75 1
  63   30   31 ar
  64   30   32 1
  65   30   42 ar
  66   31   76 1
  67   33   34 ar
  68   33   35 ar
  69   33   47 1
  70   34   40 1
  71   34   38 ar
  72   35   36 ar
  73   35   77 1
  74   36   37 ar
  75   36   78 1
  76   37   38 ar
  77   37   39 1
  78   38   79 1
  79   39   41 1
  80   41   80 1
  81   41   81 1
  82   41   82 1
  83   42   43 1
  84   44   46 1
  85   45   46 1
  86   45   83 1
  87   45   84 1
  88   45   85 1
  89   46   86 1
  90   46   87 1
  91   47   48 2
  92   47   49 2

#	End of record

