#	Name: ASD08170279
#	Creating user name:	WinNT
#	Creation time:	15. 06. 2019 21:17

#	Modifying user name:	WinNT
#	Modification time:	15. 06. 2019 21:17

#	Program:	/corina/corina34_cracker 3.40 0067  02.08.2006

@<TRIPOS>MOLECULE
ASD08170279
  67   70    0    0    0
SMALL
NO_CHARGES


@<TRIPOS>ATOM
   1 N1            -0.0155     1.2947     0.0092 N.2     
   2 C2             0.0021    -0.0041     0.0020 C.2     
   3 S3             1.6320    -0.5310    -0.0164 S.3     
   4 C4             2.1557     1.1534    -0.0123 C.2     
   5 N5             1.0945     1.8960     0.0018 N.2     
   6 C6             7.9570     3.1008     4.2506 C.2     
   7 S7             7.8334     4.5556     5.2404 S.3     
   8 C8             8.6093     3.7258     6.5226 C.2     
   9 N9             8.8778     2.5160     6.1334 N.2     
  10 N10            8.5379     2.1879     4.9626 N.2     
  11 C11            9.8381     4.0787    10.0559 C.3     
  12 C12           10.5311     3.0175    10.9129 C.3     
  13 C13           10.8547     3.6044    12.2884 C.3     
  14 C14           11.7808     4.8110    12.1231 C.3     
  15 C15           11.0877     5.8722    11.2661 C.3     
  16 C16           10.7642     5.2853     9.8906 C.3     
  17 C17           -3.5646    -1.1861     0.0305 C.3     
  18 C18           -4.8314    -0.3284     0.0471 C.3     
  19 C19           -3.5586    -2.0630    -1.2232 C.3     
  20 C20           -4.7896    -2.9716    -1.2159 C.3     
  21 C21           -6.0565    -2.1139    -1.1994 C.3     
  22 C22           -6.0624    -1.2371     0.0544 C.3     
  23 N23           -1.1168    -0.8300     0.0087 N.am    
  24 C24           -2.3521    -0.2911     0.0233 C.2     
  25 O25           -2.4879     0.9140     0.0307 O.2     
  26 N26            8.9034     4.2592     7.7729 N.am    
  27 C27            9.5194     3.5007     8.7012 C.2     
  28 O28            9.8173     2.3530     8.4462 O.2     
  29 C29            3.5816     1.6410    -0.0229 C.3     
  30 C30            4.0775     1.7984     1.4160 C.3     
  31 C31            5.5251     2.2933     1.4053 C.3     
  32 C32            6.0210     2.4507     2.8441 C.3     
  33 C33            7.4687     2.9457     2.8334 C.3     
  34 H34            8.9151     4.3932    10.5431 H       
  35 H35            9.8714     2.1579    11.0307 H       
  36 H36           11.4542     2.7031    10.4258 H       
  37 H37            9.9317     3.9188    12.7755 H       
  38 H38           11.3484     2.8483    12.8990 H       
  39 H39           12.0113     5.2290    13.1030 H       
  40 H40           12.7038     4.4965    11.6360 H       
  41 H41           10.1647     6.1866    11.7532 H       
  42 H42           11.7475     6.7318    11.1483 H       
  43 H43           11.6872     4.9709     9.4035 H       
  44 H44           10.2705     6.0414     9.2801 H       
  45 H45           -3.5432    -1.8198     0.9172 H       
  46 H46           -4.8357     0.2963     0.9403 H       
  47 H47           -4.8528     0.3052    -0.8396 H       
  48 H48           -3.5800    -1.4294    -2.1099 H       
  49 H49           -2.6561    -2.6740    -1.2350 H       
  50 H50           -4.7854    -3.5963    -2.1091 H       
  51 H51           -4.7682    -3.6053    -0.3293 H       
  52 H52           -6.0779    -1.4803    -2.0860 H       
  53 H53           -6.9334    -2.7613    -1.1941 H       
  54 H54           -6.0410    -1.8707     0.9411 H       
  55 H55           -6.9650    -0.6260     0.0662 H       
  56 H56           -1.0082    -1.7939     0.0028 H       
  57 H57            8.6652     5.1771     7.9768 H       
  58 H58            4.2086     0.9191    -0.5463 H       
  59 H59            3.6328     2.6033    -0.5321 H       
  60 H60            3.4505     2.5202     1.9394 H       
  61 H61            4.0263     0.8360     1.9252 H       
  62 H62            6.1521     1.5715     0.8818 H       
  63 H63            5.5763     3.2557     0.8960 H       
  64 H64            5.3940     3.1726     3.3675 H       
  65 H65            5.9698     1.4884     3.3534 H       
  66 H66            7.5198     3.9081     2.3241 H       
  67 H67            8.0956     2.2239     2.3100 H       
@<TRIPOS>BOND
   1    1    2 2
   2    1    5 1
   3    2    3 1
   4    2   23 1
   5    3    4 1
   6    4    5 2
   7    4   29 1
   8    6    7 1
   9    6   33 1
  10    6   10 2
  11    7    8 1
  12    8    9 2
  13    8   26 1
  14    9   10 1
  15   11   12 1
  16   11   27 1
  17   11   16 1
  18   11   34 1
  19   12   13 1
  20   12   35 1
  21   12   36 1
  22   13   14 1
  23   13   37 1
  24   13   38 1
  25   14   15 1
  26   14   39 1
  27   14   40 1
  28   15   16 1
  29   15   41 1
  30   15   42 1
  31   16   43 1
  32   16   44 1
  33   17   18 1
  34   17   19 1
  35   17   24 1
  36   17   45 1
  37   18   22 1
  38   18   46 1
  39   18   47 1
  40   19   20 1
  41   19   48 1
  42   19   49 1
  43   20   21 1
  44   20   50 1
  45   20   51 1
  46   21   22 1
  47   21   52 1
  48   21   53 1
  49   22   54 1
  50   22   55 1
  51   23   24 am
  52   23   56 1
  53   24   25 2
  54   26   27 am
  55   26   57 1
  56   27   28 2
  57   29   30 1
  58   29   58 1
  59   29   59 1
  60   30   31 1
  61   30   60 1
  62   30   61 1
  63   31   32 1
  64   31   62 1
  65   31   63 1
  66   32   33 1
  67   32   64 1
  68   32   65 1
  69   33   66 1
  70   33   67 1

#	End of record

