#	Name: ASD02408109
#	Creating user name:	WinNT
#	Creation time:	15. 06. 2019 20:21

#	Modifying user name:	WinNT
#	Modification time:	15. 06. 2019 20:21

#	Program:	/corina/corina34_cracker 3.40 0067  02.08.2006

@<TRIPOS>MOLECULE
ASD02408109
  47   49    0    0    0
SMALL
NO_CHARGES


@<TRIPOS>ATOM
   1 C1            -0.4185     2.2345     0.0172 C.ar    
   2 C2            -0.6723     0.8944    -0.2008 C.ar    
   3 C3             0.9994     2.7449     0.0075 C.3     
   4 C4             1.5285     2.7849     1.4180 C.2     
   5 N5             2.7876     3.2147     1.6293 N.am    
   6 N6             0.7496     2.4070     2.3950 N.2     
   7 C7             1.1657     2.4218     3.6678 C.2     
   8 C8             2.4701     2.8539     3.9593 C.2     
   9 C9             3.2936     3.2640     2.8795 C.2     
  10 N10            0.3260     2.0194     4.6772 N.pl3   
  11 C11            0.2931     2.7417     5.9563 C.3     
  12 O12            4.4337     3.6479     3.0758 O.2     
  13 C13           -1.9732     0.4255    -0.1920 C.ar    
  14 C14           -3.0228     1.2961     0.0348 C.ar    
  15 C15           -2.7742     2.6377     0.2528 C.ar    
  16 C16           -1.4706     3.1115     0.2393 C.ar    
  17 O17           -1.2235     4.4305     0.4535 O.3     
  18 C18           -2.3542     5.2729     0.6863 C.3     
  19 C19           -1.8818     6.7116     0.9049 C.3     
  20 C20           -1.1544     3.1410     6.2600 C.3     
  21 C21           -2.0424     1.8953     6.2186 C.3     
  22 C22           -1.9949     1.2791     4.8185 C.3     
  23 C23           -0.5610     0.8621     4.4965 C.3     
  24 C24            2.9525     2.8845     5.3073 C.1     
  25 N25            3.3353     2.9088     6.3766 N.1     
  26 H26            0.1460     0.2123    -0.3785 H       
  27 H27            1.6202     2.0815    -0.5947 H       
  28 H28            1.0215     3.7484    -0.4174 H       
  29 H29            3.3347     3.4905     0.8772 H       
  30 H30            0.6683     2.0961     6.7503 H       
  31 H31            0.9120     3.6363     5.8867 H       
  32 H32           -2.1695    -0.6227    -0.3630 H       
  33 H33           -4.0379     0.9275     0.0411 H       
  34 H34           -3.5946     3.3175     0.4297 H       
  35 H35           -3.0187     5.2358    -0.1769 H       
  36 H36           -2.8885     4.9275     1.5713 H       
  37 H37           -1.2173     6.7487     1.7680 H       
  38 H38           -1.3475     7.0570     0.0198 H       
  39 H39           -2.7442     7.3542     1.0824 H       
  40 H40           -1.2070     3.5926     7.2506 H       
  41 H41           -1.4982     3.8578     5.5142 H       
  42 H42           -1.6830     1.1688     6.9474 H       
  43 H43           -3.0688     2.1728     6.4586 H       
  44 H44           -2.6458     0.4055     4.7833 H       
  45 H45           -2.3308     2.0134     4.0863 H       
  46 H46           -0.5045     0.5145     3.4650 H       
  47 H47           -0.2526     0.0633     5.1709 H       
@<TRIPOS>BOND
   1    1    2 ar
   2    1    3 1
   3    1   16 ar
   4    2   13 ar
   5    2   26 1
   6    3    4 1
   7    3   27 1
   8    3   28 1
   9    4    5 1
  10    4    6 2
  11    5    9 am
  12    5   29 1
  13    6    7 1
  14    7    8 2
  15    7   10 1
  16    8    9 1
  17    8   24 1
  18    9   12 2
  19   10   11 1
  20   10   23 1
  21   11   20 1
  22   11   30 1
  23   11   31 1
  24   13   14 ar
  25   13   32 1
  26   14   15 ar
  27   14   33 1
  28   15   16 ar
  29   15   34 1
  30   16   17 1
  31   17   18 1
  32   18   19 1
  33   18   35 1
  34   18   36 1
  35   19   37 1
  36   19   38 1
  37   19   39 1
  38   20   21 1
  39   20   40 1
  40   20   41 1
  41   21   22 1
  42   21   42 1
  43   21   43 1
  44   22   23 1
  45   22   44 1
  46   22   45 1
  47   23   46 1
  48   23   47 1
  49   24   25 3

#	End of record

