#	Name: ASD01140233
#	Creating user name:	WinNT
#	Creation time:	15. 06. 2019 19:00

#	Modifying user name:	WinNT
#	Modification time:	15. 06. 2019 19:00

#	Program:	/corina/corina34_cracker 3.40 0067  02.08.2006

@<TRIPOS>MOLECULE
ASD01140233
  81   88    0    0    0
SMALL
NO_CHARGES


@<TRIPOS>ATOM
   1 C1             0.1487     1.7265     0.3846 C.ar    
   2 C2             0.0321     0.3337     0.3796 C.ar    
   3 C3             1.1654    -0.4565     0.2376 C.ar    
   4 C4             2.4293     0.1329     0.0990 C.ar    
   5 C5             2.5269     1.5262     0.0823 C.ar    
   6 C6             3.5931    -0.7563     0.0097 C.2     
   7 N7             4.6187    -0.6388    -0.7581 N.2     
   8 C8             4.7416     0.4632    -1.7194 C.3     
   9 C9             4.7410     1.7530    -0.9403 C.2     
  10 N10            3.7472     2.1767    -0.1202 N.pl3   
  11 C11           -1.2548    -0.2781     0.5214 C.1     
  12 C12            4.1465     3.3537     0.4341 C.2     
  13 C13            5.7159     2.7023    -0.9139 C.2     
  14 N14            5.3142     3.6716    -0.0484 N.2     
  15 C15           11.9354     6.5110    -5.0830 C.2     
  16 N16           12.4588     7.3312    -4.1325 N.2     
  17 C17           12.8437     6.4313    -6.0934 C.2     
  18 N18           13.8918     7.2206    -5.7543 N.pl3   
  19 C19           13.6281     7.7485    -4.5278 C.2     
  20 C20           12.7415     5.6079    -7.3519 C.3     
  21 N21           13.8708     4.6717    -7.3666 N.2     
  22 C22           15.0919     5.0815    -7.3742 C.2     
  23 C23           15.5787     6.4661    -7.3516 C.ar    
  24 C24           15.0178     7.4587    -6.5453 C.ar    
  25 C25           16.6617     6.7934    -8.1779 C.ar    
  26 C26           17.1873     8.0791    -8.1723 C.ar    
  27 C27           16.6369     9.0535    -7.3349 C.ar    
  28 C28           18.2920     8.4058    -9.0229 C.1     
  29 C29            8.5595     5.2955    -3.9673 C.3     
  30 C30           -2.3099    -0.7797     0.6376 C.1     
  31 C31           19.1976     8.6736    -9.7203 C.1     
  32 C32            9.0712     3.6111    -2.3407 C.3     
  33 C33           16.1317     4.0269    -7.4097 C.ar    
  34 C34           17.4104     4.2876    -6.9173 C.ar    
  35 C35           18.3745     3.3011    -6.9527 C.ar    
  36 C36           18.0751     2.0557    -7.4755 C.ar    
  37 C37           16.8087     1.7913    -7.9658 C.ar    
  38 C38           15.8343     2.7676    -7.9302 C.ar    
  39 C39            3.5867    -1.9305     0.9129 C.ar    
  40 C40            2.8719    -1.8892     2.1099 C.ar    
  41 C41            2.8694    -2.9863     2.9468 C.ar    
  42 C42            3.5743    -4.1254     2.6008 C.ar    
  43 C43            4.2855    -4.1722     1.4151 C.ar    
  44 C44            4.2906    -3.0838     0.5670 C.ar    
  45 C45           15.5652     8.7399    -6.5325 C.ar    
  46 C46            1.3862     2.3101     0.2366 C.ar    
  47 O47            8.7785     3.9075    -3.7076 O.3     
  48 C48            6.9725     2.6833    -1.6796 C.2     
  49 O49            7.8529     3.6964    -1.5553 O.3     
  50 O50            7.2166     1.7540    -2.4240 O.2     
  51 C51           10.6316     5.8309    -5.0265 C.2     
  52 O52            9.8309     5.9967    -3.9550 O.3     
  53 O53           10.2769     5.1195    -5.9460 O.2     
  54 H54           -0.7305     2.3431     0.4998 H       
  55 H55            1.0721    -1.5325     0.2342 H       
  56 H56            5.6749     0.3672    -2.2741 H       
  57 H57            3.8977     0.4478    -2.4091 H       
  58 H58            3.5868     3.9302     1.1557 H       
  59 H59           14.2811     8.4060    -3.9730 H       
  60 H60           11.8027     5.0542    -7.3557 H       
  61 H61           12.7905     6.2594    -8.2244 H       
  62 H62           17.0909     6.0411    -8.8231 H       
  63 H63           17.0525    10.0502    -7.3181 H       
  64 H64            8.0894     5.4127    -4.9438 H       
  65 H65            7.9081     5.7107    -3.1983 H       
  66 H66           -3.2535    -1.2283     0.7415 H       
  67 H67           20.0076     8.9132   -10.3441 H       
  68 H68            9.4812     2.6038    -2.2670 H       
  69 H69            9.7991     4.3283    -1.9612 H       
  70 H70           17.6455     5.2596    -6.5096 H       
  71 H71           19.3650     3.5017    -6.5717 H       
  72 H72           18.8331     1.2869    -7.5013 H       
  73 H73           16.5810     0.8172    -8.3730 H       
  74 H74           14.8461     2.5600    -8.3132 H       
  75 H75            2.3219    -1.0003     2.3813 H       
  76 H76            2.3163    -2.9556     3.8739 H       
  77 H77            3.5696    -4.9814     3.2593 H       
  78 H78            4.8341    -5.0641     1.1506 H       
  79 H79            4.8462    -3.1215    -0.3584 H       
  80 H80           15.1431     9.4950    -5.8859 H       
  81 H81            1.4736     3.3866     0.2402 H       
@<TRIPOS>BOND
   1    1    2 ar
   2    1   46 ar
   3    1   54 1
   4    2    3 ar
   5    2   11 1
   6    3    4 ar
   7    3   55 1
   8    4    5 ar
   9    4    6 1
  10    5   46 ar
  11    5   10 1
  12    6    7 2
  13    6   39 1
  14    7    8 1
  15    8    9 1
  16    8   56 1
  17    8   57 1
  18    9   10 1
  19    9   13 2
  20   10   12 1
  21   11   30 3
  22   12   14 2
  23   12   58 1
  24   13   14 1
  25   13   48 1
  26   15   16 1
  27   15   17 2
  28   15   51 1
  29   16   19 2
  30   17   18 1
  31   17   20 1
  32   18   19 1
  33   18   24 1
  34   19   59 1
  35   20   21 1
  36   20   60 1
  37   20   61 1
  38   21   22 2
  39   22   23 1
  40   22   33 1
  41   23   24 ar
  42   23   25 ar
  43   24   45 ar
  44   25   26 ar
  45   25   62 1
  46   26   27 ar
  47   26   28 1
  48   27   45 ar
  49   27   63 1
  50   28   31 3
  51   29   52 1
  52   29   47 1
  53   29   64 1
  54   29   65 1
  55   30   66 1
  56   31   67 1
  57   32   47 1
  58   32   49 1
  59   32   68 1
  60   32   69 1
  61   33   34 ar
  62   33   38 ar
  63   34   35 ar
  64   34   70 1
  65   35   36 ar
  66   35   71 1
  67   36   37 ar
  68   36   72 1
  69   37   38 ar
  70   37   73 1
  71   38   74 1
  72   39   40 ar
  73   39   44 ar
  74   40   41 ar
  75   40   75 1
  76   41   42 ar
  77   41   76 1
  78   42   43 ar
  79   42   77 1
  80   43   44 ar
  81   43   78 1
  82   44   79 1
  83   45   80 1
  84   46   81 1
  85   48   49 1
  86   48   50 2
  87   51   52 1
  88   51   53 2

#	End of record

