#	Name: ASD02508134
#	Creating user name:	WinNT
#	Creation time:	15. 06. 2019 20:23

#	Modifying user name:	WinNT
#	Modification time:	15. 06. 2019 20:23

#	Program:	/corina/corina34_cracker 3.40 0067  02.08.2006

@<TRIPOS>MOLECULE
ASD02508134
  33   35    0    0    0
SMALL
NO_CHARGES


@<TRIPOS>ATOM
   1 C1             0.4112     1.8130    -0.1971 C.ar    
   2 C2             0.2680     0.4432    -0.0411 C.ar    
   3 C3             1.6831     2.3736    -0.3113 C.ar    
   4 C4             2.8015     1.5560    -0.2677 C.ar    
   5 C5             2.6523     0.1918    -0.1116 C.ar    
   6 C6             1.3889    -0.3647     0.0009 C.ar    
   7 N7            -0.4980     2.8672    -0.2806 N.am    
   8 C8             0.2115     4.0031    -0.4317 C.2     
   9 O9             1.5218     3.7124    -0.4518 O.3     
  10 S10            4.0756    -0.8455    -0.0571 S.o2    
  11 N11            4.1127    -1.5484     1.4419 N.am    
  12 C12            4.3507    -0.7656     2.5749 C.ar    
  13 O13           -0.2621     5.1180    -0.5381 O.2     
  14 C14           -1.9576     2.7595    -0.2165 C.3     
  15 O15            3.8431    -1.8949    -0.9866 O.2     
  16 O16            5.2032     0.0165    -0.1241 O.2     
  17 C17            5.0879    -1.2806     3.6353 C.ar    
  18 C18            3.8565     0.5301     2.6419 C.ar    
  19 C19            4.0939     1.3015     3.7632 C.ar    
  20 C20            4.8228     0.7851     4.8183 C.ar    
  21 C21            5.3214    -0.5035     4.7536 C.ar    
  22 Cl22           1.2128    -2.0805     0.1971 Cl      
  23 Cl23           5.7134    -2.8980     3.5547 Cl      
  24 H24           -0.7166     0.0083     0.0477 H       
  25 H25            3.7886     1.9852    -0.3561 H       
  26 H26            3.9693    -2.5033     1.5335 H       
  27 H27           -2.2831     2.8451     0.8202 H       
  28 H28           -2.4071     3.5589    -0.8056 H       
  29 H29           -2.2686     1.7944    -0.6165 H       
  30 H30            3.2873     0.9347     1.8181 H       
  31 H31            3.7099     2.3096     3.8154 H       
  32 H32            5.0070     1.3907     5.6934 H       
  33 H33            5.8901    -0.9040     5.5797 H       
@<TRIPOS>BOND
   1    1    2 ar
   2    1    3 ar
   3    1    7 1
   4    2    6 ar
   5    2   24 1
   6    3    4 ar
   7    3    9 1
   8    4    5 ar
   9    4   25 1
  10    5    6 ar
  11    5   10 1
  12    6   22 1
  13    7    8 am
  14    7   14 1
  15    8    9 1
  16    8   13 2
  17   10   11 am
  18   10   15 2
  19   10   16 2
  20   11   12 1
  21   11   26 1
  22   12   17 ar
  23   12   18 ar
  24   14   27 1
  25   14   28 1
  26   14   29 1
  27   17   23 1
  28   17   21 ar
  29   18   19 ar
  30   18   30 1
  31   19   20 ar
  32   19   31 1
  33   20   21 ar
  34   20   32 1
  35   21   33 1

#	End of record

