#	Name: ASD01350021
#	Creating user name:	WinNT
#	Creation time:	15. 06. 2019 19:16

#	Modifying user name:	WinNT
#	Modification time:	15. 06. 2019 19:16

#	Program:	/corina/corina34_cracker 3.40 0067  02.08.2006

@<TRIPOS>MOLECULE
ASD01350021
  61   64    0    0    0
SMALL
NO_CHARGES


@<TRIPOS>ATOM
   1 C1             0.2741     0.1076     1.8827 C.3     
   2 C2             1.6911     0.5480     2.1525 C.3     
   3 C3             1.8652     2.0235     2.2597 C.ar    
   4 C4             0.7504     2.8367     2.4368 C.ar    
   5 N5            -0.5271     2.2758     2.4107 N.3     
   6 C6            -1.1442     2.5377     1.1143 C.3     
   7 C7            -0.9060     1.4381     0.1315 C.ar    
   8 C8            -0.1774     0.2993     0.4679 C.ar    
   9 C9             3.1226     2.5945     2.1954 C.ar    
  10 C10            3.2753     3.9601     2.3418 C.ar    
  11 C11            2.1711     4.7645     2.5577 C.ar    
  12 C12            0.9093     4.2054     2.6057 C.ar    
  13 C13           -1.4142     1.5524    -1.1531 C.ar    
  14 C14           -1.1676     0.5786    -2.0982 C.ar    
  15 C15           -0.4009    -0.5248    -1.7720 C.ar    
  16 C16            0.0931    -0.6583    -0.4891 C.ar    
  17 C17           -1.3554     2.8018     3.5040 C.3     
  18 C18           -0.7868     2.3341     4.8452 C.3     
  19 C19           -1.5848     2.9680     5.9863 C.3     
  20 N20           -1.0389     2.5189     7.2741 N.3     
  21 C21           -1.6187     3.2833     8.3872 C.3     
  22 C22           -1.0858     2.7334     9.7124 C.3     
  23 N23            0.3809     2.8238     9.7229 N.3     
  24 C24            0.9608     2.0594     8.6097 C.3     
  25 C25            0.4279     2.6093     7.2845 C.3     
  26 C26            0.9268     2.3747    11.0106 C.3     
  27 C27            2.4556     2.4013    10.9536 C.3     
  28 O28            2.9007     3.7412    10.7332 O.3     
  29 H29            0.1875    -0.9499     2.1326 H       
  30 H30           -0.3927     0.6691     2.5371 H       
  31 H31            2.0238     0.0916     3.0848 H       
  32 H32            2.3268     0.1821     1.3461 H       
  33 H33           -2.2184     2.6589     1.2536 H       
  34 H34           -0.7366     3.4648     0.7111 H       
  35 H35            3.9888     1.9709     2.0305 H       
  36 H36            4.2599     4.4005     2.2878 H       
  37 H37            2.2956     5.8294     2.6880 H       
  38 H38            0.0466     4.8326     2.7751 H       
  39 H39           -2.0103     2.4135    -1.4168 H       
  40 H40           -1.5739     0.6780    -3.0939 H       
  41 H41           -0.1890    -1.2780    -2.5165 H       
  42 H42            0.6945    -1.5180    -0.2327 H       
  43 H43           -1.3542     3.8913     3.4689 H       
  44 H44           -2.3763     2.4359     3.3947 H       
  45 H45           -0.8581     1.2484     4.9113 H       
  46 H46            0.2581     2.6349     4.9216 H       
  47 H47           -1.5135     4.0537     5.9202 H       
  48 H48           -2.6297     2.6672     5.9099 H       
  49 H49           -1.3411     4.3330     8.2912 H       
  50 H50           -2.7045     3.1906     8.3654 H       
  51 H51           -1.4921     3.3175    10.5382 H       
  52 H52           -1.3867     1.6914     9.8210 H       
  53 H53            2.0466     2.1521     8.6315 H       
  54 H54            0.6831     1.0097     8.7057 H       
  55 H55            0.8341     2.0252     6.4588 H       
  56 H56            0.7288     3.6513     7.1760 H       
  57 H57            0.5812     3.0384    11.8031 H       
  58 H58            0.5885     1.3587    11.2142 H       
  59 H59            2.8608     2.0342    11.8965 H       
  60 H60            2.7999     1.7653    10.1381 H       
  61 H61            3.8622     3.8334    10.6858 H       
@<TRIPOS>BOND
   1    1    2 1
   2    1    8 1
   3    1   29 1
   4    1   30 1
   5    2    3 1
   6    2   31 1
   7    2   32 1
   8    3    4 ar
   9    3    9 ar
  10    4    5 1
  11    4   12 ar
  12    5    6 1
  13    5   17 1
  14    6    7 1
  15    6   33 1
  16    6   34 1
  17    7    8 ar
  18    7   13 ar
  19    8   16 ar
  20    9   10 ar
  21    9   35 1
  22   10   11 ar
  23   10   36 1
  24   11   12 ar
  25   11   37 1
  26   12   38 1
  27   13   14 ar
  28   13   39 1
  29   14   15 ar
  30   14   40 1
  31   15   16 ar
  32   15   41 1
  33   16   42 1
  34   17   18 1
  35   17   43 1
  36   17   44 1
  37   18   19 1
  38   18   45 1
  39   18   46 1
  40   19   20 1
  41   19   47 1
  42   19   48 1
  43   20   21 1
  44   20   25 1
  45   21   22 1
  46   21   49 1
  47   21   50 1
  48   22   23 1
  49   22   51 1
  50   22   52 1
  51   23   24 1
  52   23   26 1
  53   24   25 1
  54   24   53 1
  55   24   54 1
  56   25   55 1
  57   25   56 1
  58   26   27 1
  59   26   57 1
  60   26   58 1
  61   27   28 1
  62   27   59 1
  63   27   60 1
  64   28   61 1

#	End of record

