#	Name: ASD01882795
#	Creating user name:	WinNT
#	Creation time:	15. 06. 2019 19:45

#	Modifying user name:	WinNT
#	Modification time:	15. 06. 2019 19:45

#	Program:	/corina/corina34_cracker 3.40 0067  02.08.2006

@<TRIPOS>MOLECULE
ASD01882795
  30   32    0    0    0
SMALL
NO_CHARGES


@<TRIPOS>ATOM
   1 N1            -0.0165     1.3692     0.0096 N.pl3   
   2 O2             1.1412    -0.7243    -0.0127 O.3     
   3 C3             0.0021    -0.0041     0.0020 C.2     
   4 N4            -1.0753    -0.7270     0.0089 N.2     
   5 C5            -0.6823    -2.1496     0.0076 C.3     
   6 C6             0.8153    -2.0697     0.3922 C.3     
   7 C7             1.6390    -3.0940    -0.3909 C.3     
   8 O8             3.0178    -2.9666    -0.0377 O.3     
   9 N9             6.7496    -6.2593    -2.3643 N.pl3   
  10 C10            7.8856    -5.8015    -1.7548 C.2     
  11 C11            7.5812    -4.8048    -0.9086 C.2     
  12 C12            6.1314    -4.6077    -0.9820 C.ar    
  13 C13            5.2383    -3.7384    -0.3515 C.ar    
  14 C14            3.8921    -3.8101    -0.6488 C.ar    
  15 C15            3.4257    -4.7431    -1.5716 C.ar    
  16 C16            4.2971    -5.6052    -2.1987 C.ar    
  17 C17            5.6572    -5.5489    -1.9129 C.ar    
  18 H18            0.8168     1.8655     0.0043 H       
  19 H19           -0.8631     1.8427     0.0162 H       
  20 H20           -1.2463    -2.7101     0.7532 H       
  21 H21           -0.8071    -2.5872    -0.9829 H       
  22 H22            0.9511    -2.1991     1.4659 H       
  23 H23            1.2935    -4.0992    -0.1495 H       
  24 H24            1.5198    -2.9156    -1.4596 H       
  25 H25            6.7178    -6.9740    -3.0194 H       
  26 H26            8.8800    -6.1854    -1.9283 H       
  27 H27            8.2738    -4.2529    -0.2906 H       
  28 H28            5.5986    -3.0151     0.3649 H       
  29 H29            2.3707    -4.7911    -1.7971 H       
  30 H30            3.9245    -6.3253    -2.9121 H       
@<TRIPOS>BOND
   1    1    3 1
   2    1   18 1
   3    1   19 1
   4    2    3 1
   5    2    6 1
   6    3    4 2
   7    4    5 1
   8    5    6 1
   9    5   20 1
  10    5   21 1
  11    6    7 1
  12    6   22 1
  13    7    8 1
  14    7   23 1
  15    7   24 1
  16    8   14 1
  17    9   10 1
  18    9   17 1
  19    9   25 1
  20   10   11 2
  21   10   26 1
  22   11   12 1
  23   11   27 1
  24   12   13 ar
  25   12   17 ar
  26   13   14 ar
  27   13   28 1
  28   14   15 ar
  29   15   16 ar
  30   15   29 1
  31   16   17 ar
  32   16   30 1

#	End of record

