#	Name: ASD04590778
#	Creating user name:	WinNT
#	Creation time:	15. 06. 2019 20:51

#	Modifying user name:	WinNT
#	Modification time:	15. 06. 2019 20:51

#	Program:	/corina/corina34_cracker 3.40 0067  02.08.2006

@<TRIPOS>MOLECULE
ASD04590778
  81   86    0    0    0
SMALL
NO_CHARGES


@<TRIPOS>ATOM
   1 N1            -0.0171     1.3233    -0.0128 N.ar    
   2 C2             0.0017    -0.0035    -0.0056 C.ar    
   3 N3             1.1300    -0.6947    -0.0126 N.ar    
   4 C4             2.3048    -0.0726    -0.0273 C.ar    
   5 C5             2.3188     1.3367    -0.0353 C.ar    
   6 C6             1.1071     2.0203    -0.0275 C.ar    
   7 N7             3.6049    -0.5198    -0.0378 N.pl3   
   8 C8             4.4838     0.5514    -0.0525 C.ar    
   9 C9             3.7312     1.7395    -0.0516 C.ar    
  10 C10            5.8692     0.6451    -0.0672 C.ar    
  11 N11            6.4613     1.8220    -0.0796 N.ar    
  12 C12            5.7837     2.9565    -0.0792 C.ar    
  13 C13            4.4050     2.9601    -0.0658 C.ar    
  14 C14            3.9868    -1.8669    -0.0341 C.ar    
  15 N15           -1.2019    -0.6888     0.0103 N.pl3   
  16 C16           -2.4019     0.0119     0.1313 C.ar    
  17 C17           -3.6090    -0.6708     0.0341 C.ar    
  18 C18           -4.7936     0.0331     0.1559 C.ar    
  19 C19           -4.7292     1.4083     0.3727 C.ar    
  20 C20           -3.4881     2.0219     0.4587 C.ar    
  21 N21           -2.3782     1.3181     0.3427 N.ar    
  22 N22           -5.9024     2.1611     0.5017 N.3     
  23 C23           -5.5954     3.5804     0.7235 C.3     
  24 C24           -6.8936     4.3935     0.6782 C.3     
  25 C25           -8.1013     2.3599     1.5610 C.3     
  26 C26           -6.7557     1.6270     1.5716 C.3     
  27 C27            4.6705    -2.3933     1.0540 C.ar    
  28 C28            3.6776    -2.6808    -1.1159 C.ar    
  29 C29            4.0552    -4.0092    -1.1090 C.ar    
  30 C30            4.7402    -4.5292    -0.0261 C.ar    
  31 C31            5.0454    -3.7226     1.0548 C.ar    
  32 C32            5.1503    -5.9793    -0.0217 C.3     
  33 N33           -7.8460     3.8066     1.6331 N.am    
  34 O34           -9.3371     4.0183     3.4150 O.3     
  35 C35           -9.9705     4.9053     4.3744 C.3     
  36 C36          -10.7642     5.9800     3.6286 C.3     
  37 C37          -10.9168     4.0995     5.2666 C.3     
  38 C38           -8.8980     5.5712     5.2388 C.3     
  39 C39           -8.4685     4.5742     2.5494 C.2     
  40 O40           -8.2458     5.7679     2.5944 O.2     
  41 C41            6.5206    -6.1157    -0.6339 C.2     
  42 O42            7.1043    -5.1359    -1.0328 O.2     
  43 O43            7.0927    -7.3257    -0.7359 O.3     
  44 C44            8.8989    -8.8324    -1.3662 C.3     
  45 C45            8.4136    -7.3818    -1.3361 C.3     
  46 H46            1.0847     3.1001    -0.0332 H       
  47 H47            6.4665    -0.2546    -0.0682 H       
  48 H48            6.3180     3.8950    -0.0897 H       
  49 H49            3.8572     3.8909    -0.0660 H       
  50 H50           -1.2102    -1.6560    -0.0627 H       
  51 H51           -3.6217    -1.7375    -0.1348 H       
  52 H52           -5.7459    -0.4712     0.0843 H       
  53 H53           -3.4297     3.0872     0.6263 H       
  54 H54           -5.1236     3.7025     1.6985 H       
  55 H55           -4.9186     3.9322    -0.0552 H       
  56 H56           -6.6878     5.4275     0.9550 H       
  57 H57           -7.3135     4.3571    -0.3270 H       
  58 H58           -8.6374     2.1281     0.6407 H       
  59 H59           -8.6941     2.0495     2.4215 H       
  60 H60           -6.9203     0.5620     1.4080 H       
  61 H61           -6.2677     1.7762     2.5347 H       
  62 H62            4.9092    -1.7638     1.8985 H       
  63 H63            3.1420    -2.2754    -1.9617 H       
  64 H64            3.8150    -4.6427    -1.9501 H       
  65 H65            5.5804    -4.1316     1.8991 H       
  66 H66            5.1723    -6.3476     1.0040 H       
  67 H67            4.4338    -6.5613    -0.6014 H       
  68 H68          -11.5283     5.5056     3.0128 H       
  69 H69          -11.2397     6.6458     4.3488 H       
  70 H70          -10.0900     6.5541     2.9930 H       
  71 H71          -10.3514     3.3339     5.7979 H       
  72 H72          -11.3923     4.7654     5.9867 H       
  73 H73          -11.6809     3.6251     4.6508 H       
  74 H74           -8.2238     6.1453     4.6031 H       
  75 H75           -9.3735     6.2371     5.9589 H       
  76 H76           -8.3325     4.8056     5.7701 H       
  77 H77            8.9452    -9.2213    -0.3490 H       
  78 H78            8.2068    -9.4350    -1.9543 H       
  79 H79            9.8906    -8.8745    -1.8168 H       
  80 H80            8.3673    -6.9929    -2.3534 H       
  81 H81            9.1058    -6.7792    -0.7480 H       
@<TRIPOS>BOND
   1    1    2 ar
   2    1    6 ar
   3    2    3 ar
   4    2   15 1
   5    3    4 ar
   6    4    5 ar
   7    4    7 1
   8    5    6 ar
   9    5    9 1
  10    6   46 1
  11    7    8 1
  12    7   14 1
  13    8    9 ar
  14    8   10 ar
  15    9   13 ar
  16   10   11 ar
  17   10   47 1
  18   11   12 ar
  19   12   13 ar
  20   12   48 1
  21   13   49 1
  22   14   28 ar
  23   14   27 ar
  24   15   16 1
  25   15   50 1
  26   16   17 ar
  27   16   21 ar
  28   17   18 ar
  29   17   51 1
  30   18   19 ar
  31   18   52 1
  32   19   20 ar
  33   19   22 1
  34   20   21 ar
  35   20   53 1
  36   22   23 1
  37   22   26 1
  38   23   24 1
  39   23   54 1
  40   23   55 1
  41   24   33 1
  42   24   56 1
  43   24   57 1
  44   25   26 1
  45   25   33 1
  46   25   58 1
  47   25   59 1
  48   26   60 1
  49   26   61 1
  50   27   31 ar
  51   27   62 1
  52   28   29 ar
  53   28   63 1
  54   29   30 ar
  55   29   64 1
  56   30   31 ar
  57   30   32 1
  58   31   65 1
  59   32   41 1
  60   32   66 1
  61   32   67 1
  62   33   39 am
  63   34   35 1
  64   34   39 1
  65   35   36 1
  66   35   37 1
  67   35   38 1
  68   36   68 1
  69   36   69 1
  70   36   70 1
  71   37   71 1
  72   37   72 1
  73   37   73 1
  74   38   74 1
  75   38   75 1
  76   38   76 1
  77   39   40 2
  78   41   42 2
  79   41   43 1
  80   43   45 1
  81   44   45 1
  82   44   77 1
  83   44   78 1
  84   44   79 1
  85   45   80 1
  86   45   81 1

#	End of record

