#	Name: ASD01914474
#	Creating user name:	WinNT
#	Creation time:	15. 06. 2019 20:03

#	Modifying user name:	WinNT
#	Modification time:	15. 06. 2019 20:03

#	Program:	/corina/corina34_cracker 3.40 0067  02.08.2006

@<TRIPOS>MOLECULE
ASD01914474
  54   58    0    0    0
SMALL
NO_CHARGES


@<TRIPOS>ATOM
   1 C1            -0.0187     1.5258     0.0104 C.3     
   2 C2             0.0021    -0.0041     0.0020 C.3     
   3 C3             0.7182    -0.4975    -1.2568 C.3     
   4 C4            -0.0218     0.0093    -2.4963 C.3     
   5 C5            -0.0425     1.5392    -2.4879 C.3     
   6 C6             1.3929     2.0688    -2.4988 C.3     
   7 C7             2.1328     1.5619    -1.2592 C.3     
   8 C8             1.4167     2.0553    -0.0004 C.3     
   9 C9             2.1536     0.0321    -1.2676 C.3     
  10 C10           -0.7587     2.0326    -1.2291 C.3     
  11 C11           -0.8434     3.3203     1.4375 C.2     
  12 C12           -1.5355     3.7971     2.6539 C.ar    
  13 C13           -1.6811     5.1657     2.8864 C.ar    
  14 C14           -2.3283     5.6041     4.0243 C.ar    
  15 C15           -2.8318     4.6889     4.9337 C.ar    
  16 C16           -2.6902     3.3316     4.7082 C.ar    
  17 C17           -2.0508     2.8807     3.5716 C.ar    
  18 O18           -0.3999     4.1207     0.6374 O.2     
  19 N19           -0.7044     1.9982     1.2158 N.am    
  20 Cl20          -2.5109     7.3057     4.3161 Cl      
  21 C21            1.3211    -2.6228    -2.2848 C.2     
  22 C22            1.3411    -4.1011    -2.2930 C.ar    
  23 C23            1.9441    -4.7880    -3.3479 C.ar    
  24 C24            1.9593    -6.1685    -3.3492 C.ar    
  25 C25            1.3774    -6.8709    -2.3070 C.ar    
  26 C26            0.7785    -6.1952    -1.2592 C.ar    
  27 C27            0.7623    -4.8155    -1.2431 C.ar    
  28 O28            1.8304    -2.0030    -3.1981 O.2     
  29 N29            0.7381    -1.9623    -1.2648 N.am    
  30 Cl30           2.7085    -7.0255    -4.6599 Cl      
  31 H31            0.5293    -0.3651     0.8851 H       
  32 H32           -1.0205    -0.3814     0.0098 H       
  33 H33            0.4884    -0.3422    -3.3931 H       
  34 H34           -1.0444    -0.3679    -2.4886 H       
  35 H35           -0.5697     1.9003    -3.3710 H       
  36 H36            1.9030     1.7172    -3.3956 H       
  37 H37            1.3781     3.1587    -2.4928 H       
  38 H38            3.1554     1.9392    -1.2670 H       
  39 H39            1.4019     3.1452     0.0056 H       
  40 H40            1.9439     1.6943     0.8826 H       
  41 H41            2.6808    -0.3290    -0.3846 H       
  42 H42            2.6638    -0.3194    -2.1644 H       
  43 H43           -1.7813     1.6553    -1.2214 H       
  44 H44           -0.7734     3.1225    -1.2231 H       
  45 H45           -1.2881     5.8800     2.1780 H       
  46 H46           -3.3368     5.0365     5.8228 H       
  47 H47           -3.0848     2.6230     5.4214 H       
  48 H48           -1.9451     1.8205     3.3949 H       
  49 H49           -1.0583     1.3595     1.8542 H       
  50 H50            2.3974    -4.2409    -4.1613 H       
  51 H51            1.3910    -7.9508    -2.3127 H       
  52 H52            0.3262    -6.7487    -0.4497 H       
  53 H53            0.2982    -4.2895    -0.4220 H       
  54 H54            0.3316    -2.4569    -0.5361 H       
@<TRIPOS>BOND
   1    1    2 1
   2    1    8 1
   3    1   10 1
   4    1   19 1
   5    2    3 1
   6    2   31 1
   7    2   32 1
   8    3    4 1
   9    3    9 1
  10    3   29 1
  11    4    5 1
  12    4   33 1
  13    4   34 1
  14    5    6 1
  15    5   10 1
  16    5   35 1
  17    6    7 1
  18    6   36 1
  19    6   37 1
  20    7    8 1
  21    7    9 1
  22    7   38 1
  23    8   39 1
  24    8   40 1
  25    9   41 1
  26    9   42 1
  27   10   43 1
  28   10   44 1
  29   11   12 1
  30   11   18 2
  31   11   19 am
  32   12   13 ar
  33   12   17 ar
  34   13   14 ar
  35   13   45 1
  36   14   15 ar
  37   14   20 1
  38   15   16 ar
  39   15   46 1
  40   16   17 ar
  41   16   47 1
  42   17   48 1
  43   19   49 1
  44   21   22 1
  45   21   28 2
  46   21   29 am
  47   22   23 ar
  48   22   27 ar
  49   23   24 ar
  50   23   50 1
  51   24   25 ar
  52   24   30 1
  53   25   26 ar
  54   25   51 1
  55   26   27 ar
  56   26   52 1
  57   27   53 1
  58   29   54 1

#	End of record

