#	Name: ASD09890015
#	Creating user name:	WinNT
#	Creation time:	15. 06. 2019 21:24

#	Modifying user name:	WinNT
#	Modification time:	15. 06. 2019 21:24

#	Program:	/corina/corina34_cracker 3.40 0067  02.08.2006

@<TRIPOS>MOLECULE
ASD09890015
  63   67    0    0    0
SMALL
NO_CHARGES


@<TRIPOS>ATOM
   1 C1            -0.0168     1.3911     0.0097 C.ar    
   2 C2             0.0021    -0.0041     0.0020 C.ar    
   3 N3             1.1780    -0.6360    -0.0126 N.ar    
   4 C4             2.3125     0.0452    -0.0198 C.ar    
   5 N5             2.3312     1.3700    -0.0128 N.ar    
   6 C6             1.1992     2.0693     0.0017 C.ar    
   7 C7            -1.2619    -0.7715     0.0105 C.2     
   8 C8            -2.4612    -0.1880     0.0250 C.2     
   9 S9            -3.7476    -1.3781     0.0316 S.3     
  10 C10           -1.3010    -2.2324    -0.0027 C.ar    
  11 C11           -2.6085    -2.7181     0.0138 C.ar    
  12 C12           -2.8353    -4.0988     0.0091 C.ar    
  13 C13           -1.7751    -4.9738    -0.0055 C.ar    
  14 C14           -0.4736    -4.4919    -0.0153 C.ar    
  15 C15           -0.2326    -3.1516    -0.0249 C.ar    
  16 N16            3.5121    -0.6449    -0.0345 N.pl3   
  17 N17            1.2302     3.4552     0.0084 N.pl3   
  18 C18           -0.0218     4.2158     0.0240 C.3     
  19 C19            0.2866     5.6909     0.0285 C.ar    
  20 C20            4.7797     0.0895    -0.0426 C.3     
  21 C21            5.9440    -0.9029    -0.0585 C.3     
  22 C22            7.2631    -0.1395    -0.1927 C.3     
  23 C23            5.9489    -1.7043     1.2448 C.3     
  24 C24            8.4274    -1.1319    -0.2086 C.3     
  25 C25            7.1133    -2.6967     1.2289 C.3     
  26 C26            8.4323    -1.9333     1.0947 C.3     
  27 C27            9.5792    -2.9108     1.0791 C.2     
  28 N28           10.8453    -2.4624     0.9678 N.am    
  29 O29            9.3628    -4.1009     1.1667 O.2     
  30 C30            0.7278     7.7133     1.2318 C.ar    
  31 C31            0.4449     6.3602     1.2276 C.ar    
  32 C32            0.4169     6.3735    -1.1665 C.ar    
  33 C33            0.6997     7.7266    -1.1623 C.ar    
  34 C34            0.8519     8.3972     0.0368 C.ar    
  35 H35           -0.9518     1.9317     0.0171 H       
  36 H36           -2.6191     0.8804     0.0322 H       
  37 H37           -3.8464    -4.4782     0.0174 H       
  38 H38           -1.9554    -6.0387    -0.0091 H       
  39 H39            0.3544    -5.1852    -0.0261 H       
  40 H40            0.7851    -2.7902    -0.0328 H       
  41 H41            3.5135    -1.6149    -0.0394 H       
  42 H42            2.0808     3.9213     0.0028 H       
  43 H43           -0.6074     3.9698    -0.8618 H       
  44 H44           -0.5907     3.9608     0.9180 H       
  45 H45            4.8281     0.7207    -0.9299 H       
  46 H46            4.8448     0.7117     0.8499 H       
  47 H47            5.8303    -1.5830    -0.9027 H       
  48 H48            7.2596     0.4314    -1.1212 H       
  49 H49            7.3768     0.5406     0.6515 H       
  50 H50            6.0626    -1.0243     2.0891 H       
  51 H51            5.0092    -2.2482     1.3404 H       
  52 H52            8.3137    -1.8119    -1.0528 H       
  53 H53            9.3672    -0.5880    -0.3042 H       
  54 H54            7.1167    -3.2677     2.1575 H       
  55 H55            6.9995    -3.3768     0.3847 H       
  56 H56            8.5461    -1.2532     1.9390 H       
  57 H57           11.0184    -1.5106     0.8977 H       
  58 H58           11.5835    -3.0916     0.9577 H       
  59 H59            0.8511     8.2363     2.1686 H       
  60 H60            0.3471     5.8261     2.1612 H       
  61 H61            0.2980     5.8495    -2.1034 H       
  62 H62            0.8022     8.2597    -2.0960 H       
  63 H63            1.0729     9.4543     0.0401 H       
@<TRIPOS>BOND
   1    1    2 ar
   2    1    6 ar
   3    1   35 1
   4    2    3 ar
   5    2    7 1
   6    3    4 ar
   7    4    5 ar
   8    4   16 1
   9    5    6 ar
  10    6   17 1
  11    7    8 2
  12    7   10 1
  13    8    9 1
  14    8   36 1
  15    9   11 1
  16   10   11 ar
  17   10   15 ar
  18   11   12 ar
  19   12   13 ar
  20   12   37 1
  21   13   14 ar
  22   13   38 1
  23   14   15 ar
  24   14   39 1
  25   15   40 1
  26   16   20 1
  27   16   41 1
  28   17   18 1
  29   17   42 1
  30   18   19 1
  31   18   43 1
  32   18   44 1
  33   19   32 ar
  34   19   31 ar
  35   20   21 1
  36   20   45 1
  37   20   46 1
  38   21   22 1
  39   21   23 1
  40   21   47 1
  41   22   24 1
  42   22   48 1
  43   22   49 1
  44   23   25 1
  45   23   50 1
  46   23   51 1
  47   24   26 1
  48   24   52 1
  49   24   53 1
  50   25   26 1
  51   25   54 1
  52   25   55 1
  53   26   27 1
  54   26   56 1
  55   27   28 am
  56   27   29 2
  57   28   57 1
  58   28   58 1
  59   30   31 ar
  60   30   34 ar
  61   30   59 1
  62   31   60 1
  63   32   33 ar
  64   32   61 1
  65   33   34 ar
  66   33   62 1
  67   34   63 1

#	End of record

