#	Name: ASD01910782
#	Creating user name:	WinNT
#	Creation time:	15. 06. 2019 19:56

#	Modifying user name:	WinNT
#	Modification time:	15. 06. 2019 19:56

#	Program:	/corina/corina34_cracker 3.40 0067  02.08.2006

@<TRIPOS>MOLECULE
ASD01910782
  47   50    0    0    0
SMALL
NO_CHARGES


@<TRIPOS>ATOM
   1 C1             0.0688     1.6948    -0.3738 C.ar    
   2 N2             0.0139     0.3742    -0.3997 N.ar    
   3 C3             1.1257    -0.3354    -0.3557 C.ar    
   4 C4             2.3584     0.3083    -0.2818 C.ar    
   5 N5             2.4103     1.6340    -0.2559 N.ar    
   6 C6             1.2915     2.3388    -0.3003 C.ar    
   7 N7             3.5314    -0.4360    -0.2348 N.3     
   8 C8             4.7081     0.4401    -0.1598 C.3     
   9 C9             5.9608    -0.4114     0.0722 C.3     
  10 N10            6.0218    -1.4467    -0.9707 N.am    
  11 C11            4.8286    -2.2760    -1.1986 C.3     
  12 C12            3.6205    -1.3510    -1.3806 C.3     
  13 C13            7.1414    -1.6309    -1.6980 C.2     
  14 C14            7.2254    -2.7559    -2.6539 C.ar    
  15 O15            8.0822    -0.8722    -1.5681 O.2     
  16 C16            7.8451    -2.5767    -3.8927 C.ar    
  17 C17            7.9245    -3.6258    -4.7876 C.ar    
  18 C18            7.3928    -4.8580    -4.4656 C.ar    
  19 C19            6.7694    -5.0521    -3.2288 C.ar    
  20 C20            6.6917    -3.9982    -2.3184 C.ar    
  21 C21            6.2171    -6.3307    -2.8959 C.1     
  22 C22            5.7644    -7.3789    -2.6229 C.1     
  23 C23            5.2122    -8.6575    -2.2900 C.ar    
  24 N24            4.6209    -8.8347    -1.1124 N.ar    
  25 C25            4.1011    -9.9953    -0.7694 C.ar    
  26 C26            4.1520   -11.0785    -1.6276 C.ar    
  27 C27            4.7602   -10.9384    -2.8680 C.ar    
  28 C28            5.2935    -9.7085    -3.2074 C.ar    
  29 Cl29           1.3574     4.0732    -0.2671 Cl      
  30 H30           -0.8427     2.2727    -0.4145 H       
  31 H31            1.0796    -1.4143    -0.3767 H       
  32 H32            4.8112     0.9916    -1.0943 H       
  33 H33            4.5872     1.1416     0.6656 H       
  34 H34            6.8480     0.2191     0.0145 H       
  35 H35            5.9065    -0.8830     1.0535 H       
  36 H36            4.9673    -2.8781    -2.0966 H       
  37 H37            4.6655    -2.9267    -0.3396 H       
  38 H38            2.7108    -1.9485    -1.4406 H       
  39 H39            3.7387    -0.7746    -2.2981 H       
  40 H40            8.2631    -1.6152    -4.1517 H       
  41 H41            8.4046    -3.4810    -5.7441 H       
  42 H42            7.4580    -5.6739    -5.1702 H       
  43 H43            6.2114    -4.1419    -1.3618 H       
  44 H44            3.6287   -10.1026     0.1959 H       
  45 H45            3.7226   -12.0255    -1.3354 H       
  46 H46            4.8120   -11.7707    -3.5543 H       
  47 H47            5.7733    -9.5646    -4.1642 H       
@<TRIPOS>BOND
   1    1    2 ar
   2    1    6 ar
   3    1   30 1
   4    2    3 ar
   5    3    4 ar
   6    3   31 1
   7    4    5 ar
   8    4    7 1
   9    5    6 ar
  10    6   29 1
  11    7    8 1
  12    7   12 1
  13    8    9 1
  14    8   32 1
  15    8   33 1
  16    9   10 1
  17    9   34 1
  18    9   35 1
  19   10   11 1
  20   10   13 am
  21   11   12 1
  22   11   36 1
  23   11   37 1
  24   12   38 1
  25   12   39 1
  26   13   14 1
  27   13   15 2
  28   14   16 ar
  29   14   20 ar
  30   16   17 ar
  31   16   40 1
  32   17   18 ar
  33   17   41 1
  34   18   19 ar
  35   18   42 1
  36   19   20 ar
  37   19   21 1
  38   20   43 1
  39   21   22 3
  40   22   23 1
  41   23   24 ar
  42   23   28 ar
  43   24   25 ar
  44   25   26 ar
  45   25   44 1
  46   26   27 ar
  47   26   45 1
  48   27   28 ar
  49   27   46 1
  50   28   47 1

#	End of record

