#	Name: ASD00431447
#	Creating user name:	WinNT
#	Creation time:	15. 06. 2019 18:35

#	Modifying user name:	WinNT
#	Modification time:	15. 06. 2019 18:35

#	Program:	/corina/corina34_cracker 3.40 0067  02.08.2006

@<TRIPOS>MOLECULE
ASD00431447
  27   28    0    0    0
SMALL
NO_CHARGES


@<TRIPOS>ATOM
   1 S1            -1.8438     1.4546     1.3483 S.3     
   2 C2            -1.3531    -0.1748     1.1864 C.2     
   3 N3            -1.2597    -0.7365     2.3535 N.2     
   4 C4            -1.5428     0.0043     3.3995 C.2     
   5 C5            -1.8994     1.2759     3.1002 C.2     
   6 C6            -2.2658     2.3195     4.0635 C.2     
   7 Cl7           -2.2671     1.9694     5.7638 Cl      
   8 N8            -2.5893     3.5058     3.6443 N.2     
   9 O9            -1.0987    -0.7922     0.0087 O.3     
  10 C10           -0.8210    -2.1222     0.0326 C.ar    
  11 C11           -1.8440    -3.0417     0.2096 C.ar    
  12 C12           -1.5575    -4.3976     0.2330 C.ar    
  13 C13           -0.2482    -4.8320     0.0793 C.ar    
  14 C14            0.7692    -3.9141    -0.0970 C.ar    
  15 C15            0.4857    -2.5619    -0.1260 C.ar    
  16 O16           -2.5577    -5.3011     0.4068 O.3     
  17 C17           -2.1896    -6.6818     0.4205 C.3     
  18 O18           -2.9430     4.5133     4.5743 O.3     
  19 H19           -1.4958    -0.3685     4.4121 H       
  20 H20           -2.8620    -2.7018     0.3294 H       
  21 H21           -0.0245    -5.8884     0.0978 H       
  22 H22            1.7873    -4.2541    -0.2164 H       
  23 H23            1.2821    -1.8465    -0.2683 H       
  24 H24           -1.7212    -6.9424    -0.5286 H       
  25 H25           -1.4871    -6.8625     1.2341 H       
  26 H26           -3.0798    -7.2937     0.5664 H       
  27 H27           -3.1679     5.3617     4.1684 H       
@<TRIPOS>BOND
   1    1    2 1
   2    1    5 1
   3    2    3 2
   4    2    9 1
   5    3    4 1
   6    4    5 2
   7    4   19 1
   8    5    6 1
   9    6    7 1
  10    6    8 2
  11    8   18 1
  12    9   10 1
  13   10   11 ar
  14   10   15 ar
  15   11   12 ar
  16   11   20 1
  17   12   13 ar
  18   12   16 1
  19   13   14 ar
  20   13   21 1
  21   14   15 ar
  22   14   22 1
  23   15   23 1
  24   16   17 1
  25   17   24 1
  26   17   25 1
  27   17   26 1
  28   18   27 1

#	End of record

