#	Name: ASD02038895
#	Creating user name:	WinNT
#	Creation time:	15. 06. 2019 20:17

#	Modifying user name:	WinNT
#	Modification time:	15. 06. 2019 20:17

#	Program:	/corina/corina34_cracker 3.40 0067  02.08.2006

@<TRIPOS>MOLECULE
ASD02038895
  72   74    0    0    0
SMALL
NO_CHARGES


@<TRIPOS>ATOM
   1 C1            -1.9757     0.5095     2.4951 C.2     
   2 C2            -1.6288    -0.9115     2.1325 C.3     
   3 C3            -1.9303    -1.8289     3.3192 C.3     
   4 O4            -1.1212     1.3635     2.4768 O.2     
   5 O5            -3.2352     0.8275     2.8331 O.3     
   6 O6            -1.2416    -1.3519     4.4769 O.3     
   7 C7             0.2399    -1.9770     0.9880 C.2     
   8 O8            -0.5387    -2.7888     0.5346 O.2     
   9 N9            -0.2048    -0.9966     1.7988 N.am    
  10 N10            1.9416    -3.2086    -0.2477 N.am    
  11 C11            1.7047    -2.0646     0.6449 C.3     
  12 C12            2.1431    -0.7937    -0.1130 C.3     
  13 C13            2.0741    -1.2342    -1.5991 C.3     
  14 C14            2.5269    -2.7127    -1.5066 C.3     
  15 C15            1.6736    -4.4978     0.0397 C.2     
  16 O16            1.1949    -4.7926     1.1144 O.2     
  17 N17            1.5928    -6.8872    -0.4331 N.am    
  18 C18            1.9687    -5.5729    -0.9742 C.3     
  19 C19            1.1241    -5.3420    -2.2450 C.3     
  20 C20           -0.0866    -6.2892    -2.0344 C.3     
  21 C21            0.5792    -7.4903    -1.3176 C.3     
  22 C22            2.0959    -7.4501     0.6834 C.2     
  23 C23            3.2261    -6.7801     1.4216 C.3     
  24 C24            4.5617    -7.2297     0.8257 C.3     
  25 O25            1.6389    -8.4958     1.0941 O.2     
  26 O26            4.6349    -8.6567     0.8434 O.3     
  27 N27            3.1731    -7.1523     2.8375 N.am    
  28 C28            3.7138    -6.3411     3.7681 C.2     
  29 O29            4.2453    -5.3011     3.4327 O.2     
  30 O30            3.6651    -6.6831     5.0694 O.3     
  31 C31            4.2676    -5.7617     6.0162 C.3     
  32 C32            4.1180    -6.3073     7.4129 C.ar    
  33 C33            5.0959    -7.1282     7.9428 C.ar    
  34 C34            4.9586    -7.6287     9.2240 C.ar    
  35 C35            3.8436    -7.3081     9.9755 C.ar    
  36 C36            2.8661    -6.4865     9.4460 C.ar    
  37 C37            3.0054    -5.9824     8.1664 C.ar    
  38 C38           -3.4968     2.2153     3.1705 C.3     
  39 H39           -2.2226    -1.2224     1.2729 H       
  40 H40           -3.0033    -1.8340     3.5111 H       
  41 H41           -1.5974    -2.8411     3.0898 H       
  42 H42           -1.3872    -1.8867     5.2694 H       
  43 H43            0.4179    -0.3473     2.1615 H       
  44 H44            2.2947    -2.1757     1.5546 H       
  45 H45            1.4519     0.0271     0.0784 H       
  46 H46            3.1607    -0.5139     0.1595 H       
  47 H47            1.0561    -1.1606    -1.9816 H       
  48 H48            2.7629    -0.6522    -2.2115 H       
  49 H49            3.6146    -2.7748    -1.4696 H       
  50 H50            2.1423    -3.2810    -2.3535 H       
  51 H51            3.0289    -5.5657    -1.2273 H       
  52 H52            0.7959    -4.3044    -2.3066 H       
  53 H53            1.6840    -5.6241    -3.1366 H       
  54 H54           -0.8406    -5.8242    -1.3994 H       
  55 H55           -0.5156    -6.5930    -2.9893 H       
  56 H56            1.0538    -8.1500    -2.0439 H       
  57 H57           -0.1583    -8.0383    -0.7311 H       
  58 H58            3.1315    -5.6984     1.3264 H       
  59 H59            4.6390    -6.8746    -0.2019 H       
  60 H60            5.3800    -6.8166     1.4155 H       
  61 H61            5.4570    -9.0129     0.4795 H       
  62 H62            2.7488    -7.9824     3.1053 H       
  63 H63            5.3259    -5.6427     5.7840 H       
  64 H64            3.7698    -4.7943     5.9487 H       
  65 H65            5.9670    -7.3787     7.3556 H       
  66 H66            5.7223    -8.2706     9.6376 H       
  67 H67            3.7360    -7.6997    10.9762 H       
  68 H68            1.9947    -6.2363    10.0330 H       
  69 H69            2.2435    -5.3376     7.7540 H       
  70 H70           -2.8829     2.5037     4.0237 H       
  71 H71           -3.2538     2.8487     2.3174 H       
  72 H72           -4.5502     2.3353     3.4237 H       
@<TRIPOS>BOND
   1    1    2 1
   2    1    4 2
   3    1    5 1
   4    2    3 1
   5    2    9 1
   6    2   39 1
   7    3    6 1
   8    3   40 1
   9    3   41 1
  10    5   38 1
  11    6   42 1
  12    7    8 2
  13    7    9 am
  14    7   11 1
  15    9   43 1
  16   10   11 1
  17   10   14 1
  18   10   15 am
  19   11   12 1
  20   11   44 1
  21   12   13 1
  22   12   45 1
  23   12   46 1
  24   13   14 1
  25   13   47 1
  26   13   48 1
  27   14   49 1
  28   14   50 1
  29   15   16 2
  30   15   18 1
  31   17   18 1
  32   17   21 1
  33   17   22 am
  34   18   19 1
  35   18   51 1
  36   19   20 1
  37   19   52 1
  38   19   53 1
  39   20   21 1
  40   20   54 1
  41   20   55 1
  42   21   56 1
  43   21   57 1
  44   22   23 1
  45   22   25 2
  46   23   24 1
  47   23   27 1
  48   23   58 1
  49   24   26 1
  50   24   59 1
  51   24   60 1
  52   26   61 1
  53   27   28 am
  54   27   62 1
  55   28   29 2
  56   28   30 1
  57   30   31 1
  58   31   32 1
  59   31   63 1
  60   31   64 1
  61   32   33 ar
  62   32   37 ar
  63   33   34 ar
  64   33   65 1
  65   34   35 ar
  66   34   66 1
  67   35   36 ar
  68   35   67 1
  69   36   37 ar
  70   36   68 1
  71   37   69 1
  72   38   70 1
  73   38   71 1
  74   38   72 1

#	End of record

