#	Name: ASD01811528
#	Creating user name:	WinNT
#	Creation time:	15. 06. 2019 19:26

#	Modifying user name:	WinNT
#	Modification time:	15. 06. 2019 19:26

#	Program:	/corina/corina34_cracker 3.40 0067  02.08.2006

@<TRIPOS>MOLECULE
ASD01811528
  66   70    0    0    0
SMALL
NO_CHARGES


@<TRIPOS>ATOM
   1 C1            -6.2517     2.1581    -4.4342 C.1     
   2 C2            -5.3861     3.0240    -3.6915 C.ar    
   3 C3            -4.1677     2.5475    -3.2037 C.ar    
   4 C4            -3.3387     3.3871    -2.4889 C.ar    
   5 C5            -3.7125     4.6985    -2.2545 C.ar    
   6 C6            -4.9187     5.1771    -2.7346 C.ar    
   7 C7            -5.7542     4.3504    -3.4567 C.ar    
   8 N8            -6.9383     1.4712    -5.0234 N.1     
   9 N9            -2.0906     8.0751    -0.2827 N.am    
  10 C10           -1.4545     7.7113    -1.5561 C.3     
  11 C11           -2.4074     6.8054    -2.3422 C.3     
  12 C12           -2.8019     5.6096    -1.4724 C.3     
  13 C13           -3.5293     6.1052    -0.2204 C.3     
  14 C14           -2.5890     7.0031     0.5897 C.3     
  15 C15           -2.2097     9.3675     0.0808 C.2     
  16 C16           -2.9396     9.7237     1.3164 C.ar    
  17 C17           -4.0146    10.6134     1.2626 C.ar    
  18 C18           -4.6958    10.9464     2.4159 C.ar    
  19 C19           -4.3191    10.4027     3.6289 C.ar    
  20 C20           -3.2480     9.5130     3.6955 C.ar    
  21 C21           -2.5601     9.1680     2.5369 C.ar    
  22 O22           -1.7170    10.2402    -0.6070 O.2     
  23 C23           -4.4313    11.2112    -0.0565 C.3     
  24 N24           -2.2942     8.6790     7.1151 N.pl3   
  25 N25           -2.6680     9.5941     6.1227 N.2     
  26 C26           -2.8457     8.9304     5.0002 C.2     
  27 C27           -2.5871     7.5697     5.2555 C.2     
  28 C28           -2.2523     7.4493     6.5587 C.2     
  29 C29           -1.8953     6.1680     7.2671 C.3     
  30 C30           -3.1741     5.4709     7.7356 C.3     
  31 C31           -5.0679    10.7727     4.8833 C.3     
  32 C32           -5.1202    12.2871     5.1454 C.3     
  33 C33           -6.5763    12.0795     5.5945 C.3     
  34 C34           -6.5930    10.8320     4.6955 C.3     
  35 H35           -3.8751     1.5239    -3.3852 H       
  36 H36           -2.3960     3.0198    -2.1110 H       
  37 H37           -5.2044     6.2017    -2.5478 H       
  38 H38           -6.6932     4.7266    -3.8350 H       
  39 H39           -1.2488     8.6131    -2.1327 H       
  40 H40           -0.5231     7.1798    -1.3606 H       
  41 H41           -3.3008     7.3670    -2.6154 H       
  42 H42           -1.9102     6.4504    -3.2449 H       
  43 H43           -1.9058     5.0627    -1.1790 H       
  44 H44           -4.4121     6.6734    -0.5136 H       
  45 H45           -3.8305     5.2518     0.3871 H       
  46 H46           -1.7502     6.4139     0.9602 H       
  47 H47           -3.1319     7.4378     1.4290 H       
  48 H48           -5.5264    11.6352     2.3700 H       
  49 H49           -1.7323     8.4759     2.5835 H       
  50 H50           -5.0991    10.5218    -0.5731 H       
  51 H51           -4.9482    12.1546     0.1192 H       
  52 H52           -3.5480    11.3896    -0.6697 H       
  53 H53           -2.0959     8.8922     8.0404 H       
  54 H54           -2.6463     6.7654     4.5372 H       
  55 H55           -1.3542     5.5136     6.5836 H       
  56 H56           -1.2670     6.3923     8.1291 H       
  57 H57           -2.9159     4.5441     8.2479 H       
  58 H58           -3.7152     6.1253     8.4190 H       
  59 H59           -3.8023     5.2466     6.8735 H       
  60 H60           -4.7557    10.1900     5.7500 H       
  61 H61           -4.4584    12.6145     5.9473 H       
  62 H62           -5.0235    12.8901     4.2426 H       
  63 H63           -6.6778    11.8540     6.6561 H       
  64 H64           -7.2524    12.8669     5.2614 H       
  65 H65           -6.8990    11.0372     3.6696 H       
  66 H66           -7.1203     9.9848     5.1340 H       
@<TRIPOS>BOND
   1    1    2 1
   2    1    8 3
   3    2    3 ar
   4    2    7 ar
   5    3    4 ar
   6    3   35 1
   7    4    5 ar
   8    4   36 1
   9    5    6 ar
  10    5   12 1
  11    6    7 ar
  12    6   37 1
  13    7   38 1
  14    9   10 1
  15    9   14 1
  16    9   15 am
  17   10   11 1
  18   10   39 1
  19   10   40 1
  20   11   12 1
  21   11   41 1
  22   11   42 1
  23   12   13 1
  24   12   43 1
  25   13   14 1
  26   13   44 1
  27   13   45 1
  28   14   46 1
  29   14   47 1
  30   15   16 1
  31   15   22 2
  32   16   17 ar
  33   16   21 ar
  34   17   18 ar
  35   17   23 1
  36   18   19 ar
  37   18   48 1
  38   19   20 ar
  39   19   31 1
  40   20   21 ar
  41   20   26 1
  42   21   49 1
  43   23   50 1
  44   23   51 1
  45   23   52 1
  46   24   25 1
  47   24   28 1
  48   24   53 1
  49   25   26 2
  50   26   27 1
  51   27   28 2
  52   27   54 1
  53   28   29 1
  54   29   30 1
  55   29   55 1
  56   29   56 1
  57   30   57 1
  58   30   58 1
  59   30   59 1
  60   31   32 1
  61   31   34 1
  62   31   60 1
  63   32   33 1
  64   32   61 1
  65   32   62 1
  66   33   34 1
  67   33   63 1
  68   33   64 1
  69   34   65 1
  70   34   66 1

#	End of record

