#	Name: ASD01916058
#	Creating user name:	WinNT
#	Creation time:	15. 06. 2019 20:06

#	Modifying user name:	WinNT
#	Modification time:	15. 06. 2019 20:06

#	Program:	/corina/corina34_cracker 3.40 0067  02.08.2006

@<TRIPOS>MOLECULE
ASD01916058
  42   44    0    0    0
SMALL
NO_CHARGES


@<TRIPOS>ATOM
   1 C1            -0.0169     1.3970     0.0097 C.ar    
   2 C2             0.0021    -0.0041     0.0020 C.ar    
   3 C3            -1.2137    -0.6682     0.0096 C.ar    
   4 C4            -2.3744     0.0928     0.0243 C.ar    
   5 C5            -3.7192    -0.5871     0.0334 C.3     
   6 C6             1.2105     2.1344     0.0020 C.1     
   7 C7             2.2169     2.7390    -0.0044 C.1     
   8 C8             3.4443     3.4765    -0.0122 C.ar    
   9 C9             3.4237     4.8736    -0.0045 C.ar    
  10 C10            5.8479     3.5206    -0.0292 C.ar    
  11 C11            4.6094     5.5786    -0.0120 C.ar    
  12 N12           -2.3028     1.4106     0.0307 N.ar    
  13 N13           -1.1828     2.0375     0.0187 N.ar    
  14 C14            4.6681     2.8022    -0.0217 C.ar    
  15 C15            5.8182     4.9065    -0.0277 C.ar    
  16 C16           -4.1317    -0.9512     1.4785 C.3     
  17 C17           -3.6434    -1.9202    -0.6778 C.2     
  18 N18           -4.2787    -2.8633     0.0389 N.am    
  19 C19           -4.8486    -2.3037     1.2701 C.3     
  20 C20           -4.3885    -4.2692    -0.3582 C.3     
  21 O21           -3.0904    -2.1101    -1.7404 O.2     
  22 C22           -4.5744    -3.2359     2.4519 C.3     
  23 C23           -6.3539    -2.0851     1.1051 C.3     
  24 F24            7.0326     2.8714    -0.0441 F       
  25 H25            0.9346    -0.5487    -0.0098 H       
  26 H26           -1.2571    -1.7473     0.0038 H       
  27 H27           -4.4718     0.0518    -0.4286 H       
  28 H28            2.4811     5.4007     0.0071 H       
  29 H29            4.5938     6.6585    -0.0061 H       
  30 H30            4.6915     1.7225    -0.0228 H       
  31 H31            6.7432     5.4639    -0.0335 H       
  32 H32           -3.2557    -1.0684     2.1165 H       
  33 H33           -4.8144    -0.2070     1.8886 H       
  34 H34           -3.8797    -4.4186    -1.3105 H       
  35 H35           -3.9273    -4.8988     0.4028 H       
  36 H36           -5.4401    -4.5363    -0.4623 H       
  37 H37           -3.4991    -3.3750     2.5631 H       
  38 H38           -4.9801    -2.7963     3.3632 H       
  39 H39           -5.0488    -4.2005     2.2715 H       
  40 H40           -6.8412    -3.0413     0.9148 H       
  41 H41           -6.7593    -1.6456     2.0164 H       
  42 H42           -6.5336    -1.4125     0.2663 H       
@<TRIPOS>BOND
   1    1    2 ar
   2    1    6 1
   3    1   13 ar
   4    2    3 ar
   5    2   25 1
   6    3    4 ar
   7    3   26 1
   8    4   12 ar
   9    4    5 1
  10    5   16 1
  11    5   17 1
  12    5   27 1
  13    6    7 3
  14    7    8 1
  15    8    9 ar
  16    8   14 ar
  17    9   11 ar
  18    9   28 1
  19   10   15 ar
  20   10   24 1
  21   10   14 ar
  22   11   15 ar
  23   11   29 1
  24   12   13 ar
  25   14   30 1
  26   15   31 1
  27   16   19 1
  28   16   32 1
  29   16   33 1
  30   17   18 am
  31   17   21 2
  32   18   19 1
  33   18   20 1
  34   19   22 1
  35   19   23 1
  36   20   34 1
  37   20   35 1
  38   20   36 1
  39   22   37 1
  40   22   38 1
  41   22   39 1
  42   23   40 1
  43   23   41 1
  44   23   42 1

#	End of record

