#	Name: ASD01813627
#	Creating user name:	WinNT
#	Creation time:	15. 06. 2019 19:30

#	Modifying user name:	WinNT
#	Modification time:	15. 06. 2019 19:30

#	Program:	/corina/corina34_cracker 3.40 0067  02.08.2006

@<TRIPOS>MOLECULE
ASD01813627
  50   53    0    0    0
SMALL
NO_CHARGES


@<TRIPOS>ATOM
   1 C1             0.0981     1.4755     0.3561 C.ar    
   2 C2             0.0800     0.0883     0.3483 C.ar    
   3 C3             1.2501    -0.6306     0.2177 C.ar    
   4 C4             2.4673     0.0383     0.0917 C.ar    
   5 C5             2.4808     1.4430     0.1001 C.ar    
   6 C6             1.2893     2.1560     0.2331 C.ar    
   7 N7             3.6443    -0.6677    -0.0386 N.pl3   
   8 C8             4.8374    -0.0728    -0.1610 C.2     
   9 C9             4.9775     1.3006    -0.1659 C.2     
  10 C10            3.7747     2.1383    -0.0339 C.2     
  11 O11            3.8450     3.3548    -0.0329 O.2     
  12 C12            6.3054     1.9157    -0.3015 C.2     
  13 O13            6.4291     3.2581    -0.3049 O.3     
  14 O14            7.2920     1.2141    -0.4107 O.2     
  15 C15            3.5871    -2.1316    -0.0427 C.3     
  16 C16            3.4445    -2.6248    -1.4595 C.ar    
  17 C17            4.5595    -2.7691    -2.2632 C.ar    
  18 N18            4.4483    -3.1990    -3.5042 N.ar    
  19 C19            3.2698    -3.5093    -4.0297 C.ar    
  20 C20            2.1037    -3.3877    -3.2749 C.ar    
  21 C21            2.1925    -2.9437    -1.9677 C.ar    
  22 F22            1.2170    -1.9812     0.2122 F       
  23 C23            3.1926    -3.9882    -5.4296 C.ar    
  24 C24            4.3526    -4.1159    -6.2018 C.ar    
  25 N25            4.2841    -4.5432    -7.4511 N.ar    
  26 C26            3.1300    -4.8634    -8.0143 C.ar    
  27 C27            1.9371    -4.7613    -7.3088 C.ar    
  28 C28            1.9603    -4.3250    -5.9975 C.ar    
  29 O29            5.5562    -3.7984    -5.6647 O.3     
  30 O30            3.1113    -5.2970    -9.2991 O.3     
  31 C31            4.3681    -5.3809    -9.9739 C.3     
  32 C32            6.7020    -3.9506    -6.5050 C.3     
  33 H33           -0.8268     2.0245     0.4547 H       
  34 H34           -0.8601    -0.4343     0.4459 H       
  35 H35            1.3007     3.2359     0.2391 H       
  36 H36            5.7198    -0.6879    -0.2589 H       
  37 H37            7.3226     3.6164    -0.3965 H       
  38 H38            4.5033    -2.5323     0.3911 H       
  39 H39            2.7314    -2.4634     0.5453 H       
  40 H40            5.5352    -2.5260    -1.8691 H       
  41 H41            1.1451    -3.6404    -3.7035 H       
  42 H42            1.3067    -2.8398    -1.3587 H       
  43 H43            1.0014    -5.0248    -7.7792 H       
  44 H44            1.0469    -4.2375    -5.4279 H       
  45 H45            4.2112    -5.7403   -10.9909 H       
  46 H46            4.8307    -4.3944   -10.0045 H       
  47 H47            5.0211    -6.0721    -9.4410 H       
  48 H48            6.7867    -4.9909    -6.8190 H       
  49 H49            6.5959    -3.3135    -7.3830 H       
  50 H50            7.5975    -3.6634    -5.9538 H       
@<TRIPOS>BOND
   1    1    2 ar
   2    1    6 ar
   3    1   33 1
   4    2    3 ar
   5    2   34 1
   6    3    4 ar
   7    3   22 1
   8    4    5 ar
   9    4    7 1
  10    5    6 ar
  11    5   10 1
  12    6   35 1
  13    7    8 1
  14    7   15 1
  15    8    9 2
  16    8   36 1
  17    9   10 1
  18    9   12 1
  19   10   11 2
  20   12   13 1
  21   12   14 2
  22   13   37 1
  23   15   16 1
  24   15   38 1
  25   15   39 1
  26   16   17 ar
  27   16   21 ar
  28   17   18 ar
  29   17   40 1
  30   18   19 ar
  31   19   20 ar
  32   19   23 1
  33   20   21 ar
  34   20   41 1
  35   21   42 1
  36   23   24 ar
  37   23   28 ar
  38   24   25 ar
  39   24   29 1
  40   25   26 ar
  41   26   27 ar
  42   26   30 1
  43   27   28 ar
  44   27   43 1
  45   28   44 1
  46   29   32 1
  47   30   31 1
  48   31   45 1
  49   31   46 1
  50   31   47 1
  51   32   48 1
  52   32   49 1
  53   32   50 1

#	End of record

