#	Name: ASD01882361
#	Creating user name:	WinNT
#	Creation time:	15. 06. 2019 19:44

#	Modifying user name:	WinNT
#	Modification time:	15. 06. 2019 19:44

#	Program:	/corina/corina34_cracker 3.40 0067  02.08.2006

@<TRIPOS>MOLECULE
ASD01882361
  54   58    0    0    0
SMALL
NO_CHARGES


@<TRIPOS>ATOM
   1 C1             1.6547     1.3973     1.0691 C.2     
   2 C2             1.7663    -0.0012     0.9877 C.2     
   3 C3             1.2590    -0.6481    -0.1063 C.2     
   4 C4             0.6349     0.0981    -1.1298 C.2     
   5 C5             0.5388     1.4383    -1.0312 C.2     
   6 N6             1.0414     2.0928     0.0555 N.pl3   
   7 N7             1.6936     3.4673     1.5806 N.2     
   8 N8             2.0288     2.2890     1.9739 N.2     
   9 C9             1.0905     3.4056     0.4227 C.2     
  10 C10            2.4367    -0.7786     2.0910 C.3     
  11 F11            3.7870    -0.9652     1.7760 F       
  12 F12            2.3317    -0.0688     3.2919 F       
  13 F13            1.8138    -2.0236     2.2292 F       
  14 N14            1.3580    -2.0323    -0.2097 N.pl3   
  15 C15            2.6690    -2.6807    -0.3498 C.3     
  16 C16            2.6409    -3.5879    -1.5839 C.3     
  17 C17            1.4667    -4.5626    -1.4690 C.3     
  18 C18            0.1537    -3.7782    -1.4162 C.3     
  19 C19            0.1539    -2.8736    -0.1746 C.3     
  20 C20            1.4562    -5.4793    -2.6651 C.ar    
  21 C21            0.6916    -6.6305    -2.6369 C.ar    
  22 C22            0.6885    -7.4666    -3.7426 C.ar    
  23 C23            1.4581    -7.1121    -4.8403 C.ar    
  24 C24            2.1973    -5.9454    -4.7959 C.ar    
  25 N25            2.1722    -5.1711    -3.7286 N.ar    
  26 C26            1.6163    -5.3926    -0.1924 C.3     
  27 C27            0.5468     4.5715    -0.3622 C.3     
  28 C28           -0.9064     4.8259     0.0432 C.3     
  29 C29           -1.6042     6.0473    -0.5585 C.3     
  30 C30           -1.9817     4.6415    -1.0295 C.3     
  31 H31            0.2332    -0.4076    -1.9954 H       
  32 H32            0.0599     1.9999    -1.8196 H       
  33 H33            3.4411    -1.9211    -0.4722 H       
  34 H34            2.8781    -3.2776     0.5378 H       
  35 H35            2.5221    -2.9792    -2.4803 H       
  36 H36            3.5740    -4.1480    -1.6450 H       
  37 H37            0.0582    -3.1678    -2.3142 H       
  38 H38           -0.6835    -4.4738    -1.3579 H       
  39 H39            0.1622    -3.4859     0.7271 H       
  40 H40           -0.7339    -2.2413    -0.1813 H       
  41 H41            0.1042    -6.8756    -1.7643 H       
  42 H42            0.1010    -8.3728    -3.7488 H       
  43 H43            1.4799    -7.7401    -5.7187 H       
  44 H44            2.7992    -5.6622    -5.6467 H       
  45 H45            1.6245    -4.7299     0.6729 H       
  46 H46            0.7800    -6.0869    -0.1104 H       
  47 H47            2.5509    -5.9523    -0.2304 H       
  48 H48            1.1430     5.4598    -0.1533 H       
  49 H49            0.5926     4.3454    -1.4275 H       
  50 H50           -1.1638     4.5525     1.0665 H       
  51 H51           -2.3210     6.5773     0.0688 H       
  52 H52           -1.0280     6.6697    -1.2431 H       
  53 H53           -1.6538     4.3389    -2.0240 H       
  54 H54           -2.9467     4.2465    -0.7121 H       
@<TRIPOS>BOND
   1    1    2 1
   2    1    6 1
   3    1    8 2
   4    2    3 2
   5    2   10 1
   6    3    4 1
   7    3   14 1
   8    4    5 2
   9    4   31 1
  10    5    6 1
  11    5   32 1
  12    6    9 1
  13    7    8 1
  14    7    9 2
  15    9   27 1
  16   10   11 1
  17   10   12 1
  18   10   13 1
  19   14   15 1
  20   14   19 1
  21   15   16 1
  22   15   33 1
  23   15   34 1
  24   16   17 1
  25   16   35 1
  26   16   36 1
  27   17   18 1
  28   17   20 1
  29   17   26 1
  30   18   19 1
  31   18   37 1
  32   18   38 1
  33   19   39 1
  34   19   40 1
  35   20   21 ar
  36   20   25 ar
  37   21   22 ar
  38   21   41 1
  39   22   23 ar
  40   22   42 1
  41   23   24 ar
  42   23   43 1
  43   24   25 ar
  44   24   44 1
  45   26   45 1
  46   26   46 1
  47   26   47 1
  48   27   28 1
  49   27   48 1
  50   27   49 1
  51   28   29 1
  52   28   30 1
  53   28   50 1
  54   29   30 1
  55   29   51 1
  56   29   52 1
  57   30   53 1
  58   30   54 1

#	End of record

