#	Name: ASD02398012
#	Creating user name:	WinNT
#	Creation time:	15. 06. 2019 20:20

#	Modifying user name:	WinNT
#	Modification time:	15. 06. 2019 20:20

#	Program:	/corina/corina34_cracker 3.40 0067  02.08.2006

@<TRIPOS>MOLECULE
ASD02398012
  64   67    0    0    0
SMALL
NO_CHARGES


@<TRIPOS>ATOM
   1 C1            -0.2322     1.3881    -0.0521 C.ar    
   2 C2             0.0549     0.0217    -0.1294 C.ar    
   3 C3            -0.9833    -0.9053    -0.0814 C.ar    
   4 C4            -2.2883    -0.4722     0.0420 C.ar    
   5 C5            -2.5692     0.8802     0.1182 C.ar    
   6 C6            -1.5457     1.8086     0.0774 C.ar    
   7 C7            -3.4109    -1.4762     0.0933 C.3     
   8 C8            -3.5995    -1.9468     1.5124 C.2     
   9 O9            -2.8357    -1.5844     2.3756 O.2     
  10 O10           -4.6161    -2.7686     1.8175 O.3     
  11 C11            1.4587    -0.4382    -0.2623 C.ar    
  12 C12            2.3538    -0.2635     0.7921 C.ar    
  13 C13            1.8842    -1.0511    -1.4395 C.ar    
  14 C14            3.1903    -1.4782    -1.5600 C.ar    
  15 C15            4.0803    -1.2985    -0.5102 C.ar    
  16 C16            3.6582    -0.6926     0.6656 C.ar    
  17 C17            1.8965     0.3940     2.0687 C.3     
  18 N18            2.9687     0.3254     3.0646 N.am    
  19 C19            3.9878     1.1888     3.1732 C.2     
  20 O20            4.8344     0.9039     4.1690 O.3     
  21 C21            4.3841    -0.2965     4.8611 C.3     
  22 C22            3.0987    -0.6987     4.1124 C.3     
  23 O23            4.1301     2.1429     2.4344 O.2     
  24 O24            0.7740     2.2998    -0.0981 O.3     
  25 C25            0.4053     3.6778    -0.0137 C.3     
  26 C26            3.2546    -2.0846     3.4833 C.3     
  27 C27            5.4217    -1.3848     4.7608 C.ar    
  28 C28            5.5716    -2.2940     5.7913 C.ar    
  29 C29            6.2198    -1.4773     3.6359 C.ar    
  30 C30            7.1716    -2.4756     3.5439 C.ar    
  31 C31            7.3256    -3.3810     4.5770 C.ar    
  32 C32            6.5234    -3.2922     5.6993 C.ar    
  33 O33            5.3662    -1.7206    -0.6317 O.3     
  34 C34            5.7317    -2.3402    -1.8664 C.3     
  35 C35           -4.8050    -3.0907     3.2207 C.3     
  36 H36           -0.7677    -1.9619    -0.1410 H       
  37 H37           -3.5924     1.2121     0.2143 H       
  38 H38           -1.7711     2.8631     0.1377 H       
  39 H39           -4.3310    -1.0110    -0.2605 H       
  40 H40           -3.1665    -2.3274    -0.5423 H       
  41 H41            1.1919    -1.1918    -2.2565 H       
  42 H42            3.5206    -1.9531    -2.4720 H       
  43 H43            4.3531    -0.5538     1.4806 H       
  44 H44            1.6496     1.4372     1.8718 H       
  45 H45            1.0148    -0.1227     2.4479 H       
  46 H46            4.1610    -0.0749     5.9048 H       
  47 H47            2.2411    -0.6766     4.7848 H       
  48 H48           -0.2554     3.9287    -0.8435 H       
  49 H49           -0.1109     3.8587     0.9292 H       
  50 H50            1.3009     4.2972    -0.0622 H       
  51 H51            3.4827    -2.8132     4.2612 H       
  52 H52            2.3263    -2.3639     2.9849 H       
  53 H53            4.0658    -2.0641     2.7555 H       
  54 H54            4.9453    -2.2242     6.6684 H       
  55 H55            6.0994    -0.7699     2.8288 H       
  56 H56            7.7946    -2.5483     2.6647 H       
  57 H57            8.0690    -4.1611     4.5050 H       
  58 H58            6.6437    -3.9996     6.5064 H       
  59 H59            5.1165    -3.2259    -2.0246 H       
  60 H60            5.5754    -1.6381    -2.6854 H       
  61 H61            6.7822    -2.6290    -1.8310 H       
  62 H62           -3.8807    -3.5016     3.6268 H       
  63 H63           -5.0721    -2.1868     3.7682 H       
  64 H64           -5.6040    -3.8254     3.3205 H       
@<TRIPOS>BOND
   1    1    2 ar
   2    1   24 1
   3    1    6 ar
   4    2    3 ar
   5    2   11 1
   6    3    4 ar
   7    3   36 1
   8    4    5 ar
   9    4    7 1
  10    5    6 ar
  11    5   37 1
  12    6   38 1
  13    7    8 1
  14    7   39 1
  15    7   40 1
  16    8    9 2
  17    8   10 1
  18   10   35 1
  19   11   12 ar
  20   11   13 ar
  21   12   17 1
  22   12   16 ar
  23   13   14 ar
  24   13   41 1
  25   14   15 ar
  26   14   42 1
  27   15   16 ar
  28   15   33 1
  29   16   43 1
  30   17   18 1
  31   17   44 1
  32   17   45 1
  33   18   19 am
  34   18   22 1
  35   19   20 1
  36   19   23 2
  37   20   21 1
  38   21   22 1
  39   21   27 1
  40   21   46 1
  41   22   26 1
  42   22   47 1
  43   24   25 1
  44   25   48 1
  45   25   49 1
  46   25   50 1
  47   26   51 1
  48   26   52 1
  49   26   53 1
  50   27   28 ar
  51   27   29 ar
  52   28   32 ar
  53   28   54 1
  54   29   30 ar
  55   29   55 1
  56   30   31 ar
  57   30   56 1
  58   31   32 ar
  59   31   57 1
  60   32   58 1
  61   33   34 1
  62   34   59 1
  63   34   60 1
  64   34   61 1
  65   35   62 1
  66   35   63 1
  67   35   64 1

#	End of record

