#	Name: ASD01209040
#	Creating user name:	WinNT
#	Creation time:	15. 06. 2019 19:10

#	Modifying user name:	WinNT
#	Modification time:	15. 06. 2019 19:10

#	Program:	/corina/corina34_cracker 3.40 0067  02.08.2006

@<TRIPOS>MOLECULE
ASD01209040
  63   67    0    0    0
SMALL
NO_CHARGES


@<TRIPOS>ATOM
   1 C1            -2.2070     1.6115    -0.9281 C.3     
   2 C2            -2.1671     0.0889    -1.0904 C.3     
   3 C3            -1.4177    -0.2565    -2.3809 C.3     
   4 C4            -2.1040     0.4358    -3.5613 C.3     
   5 C5            -2.8628     2.2317    -2.1646 C.3     
   6 C6            -1.4430    -0.5345     0.1045 C.3     
   7 C7            -1.5300    -2.0594     0.0148 C.3     
   8 C8            -0.7065    -2.6752     1.1166 C.2     
   9 O9            -1.2489    -3.3085     1.9974 O.2     
  10 N10           -2.9267    -2.4780     0.1568 N.pl3   
  11 C11           -3.6476    -3.1767    -0.7786 C.ar    
  12 C12           -4.9339    -3.3670    -0.2385 C.ar    
  13 C13           -4.9248    -2.7348     1.0767 C.2     
  14 N14           -3.7377    -2.2348     1.2701 N.2     
  15 N15            0.6325    -2.5222     1.1230 N.am    
  16 O16           -2.1348     1.8460    -3.3322 O.3     
  17 C17           -3.3515    -3.6782    -2.0433 C.ar    
  18 C18           -4.3050    -4.3498    -2.7534 C.ar    
  19 C19           -5.5811    -4.5435    -2.2278 C.ar    
  20 C20           -5.9011    -4.0580    -0.9773 C.ar    
  21 S21           -7.5156    -4.3037    -0.3157 S.o2    
  22 O22           -7.6889    -3.2267     0.5948 O.2     
  23 O23           -8.3469    -4.4363    -1.4605 O.2     
  24 C24           -7.4043    -5.8795     0.5760 C.3     
  25 C25           -8.6931    -6.4431     1.1779 C.3     
  26 C26           -8.0755    -7.0992    -0.0586 C.3     
  27 C27            1.4083    -3.1798     2.0875 C.2     
  28 C28            0.9244    -4.0235     3.1001 C.2     
  29 C29            1.9837    -4.4576     3.8199 C.2     
  30 N30            3.0976    -3.9124     3.2873 N.pl3   
  31 N31            2.7144    -3.1190     2.1984 N.2     
  32 C32            4.4683    -4.1190     3.7615 C.3     
  33 O33           -6.5158    -5.2152    -2.9518 O.3     
  34 C34           -6.1196    -5.6922    -4.2393 C.3     
  35 H35           -2.7863     1.8682    -0.0411 H       
  36 H36           -1.1914     1.9934    -0.8241 H       
  37 H37           -3.1844    -0.2988    -1.1446 H       
  38 H38           -0.3861     0.0877    -2.3063 H       
  39 H39           -1.4324    -1.3358    -2.5329 H       
  40 H40           -1.5498     0.2283    -4.4767 H       
  41 H41           -3.1228     0.0612    -3.6601 H       
  42 H42           -3.8916     1.8806    -2.2451 H       
  43 H43           -2.8553     3.3179    -2.0738 H       
  44 H44           -0.3967    -0.2291     0.0950 H       
  45 H45           -1.9113    -0.1976     1.0293 H       
  46 H46           -1.1484    -2.3888    -0.9515 H       
  47 H47           -5.7532    -2.6929     1.7683 H       
  48 H48            1.0593    -1.9570     0.4603 H       
  49 H49           -2.3667    -3.5356    -2.4632 H       
  50 H50           -4.0676    -4.7352    -3.7340 H       
  51 H51           -6.4780    -6.0438     1.1264 H       
  52 H52           -8.6146    -6.9786     2.1241 H       
  53 H53           -9.6078    -5.8671     1.0381 H       
  54 H54           -8.5839    -6.9549    -1.0119 H       
  55 H55           -7.5906    -8.0664     0.0741 H       
  56 H56           -0.1102    -4.2802     3.2734 H       
  57 H57            1.9453    -5.1223     4.6703 H       
  58 H58            4.9036    -4.9783     3.2513 H       
  59 H59            5.0637    -3.2309     3.5498 H       
  60 H60            4.4574    -4.3016     4.8360 H       
  61 H61           -5.8168    -4.8499    -4.8614 H       
  62 H62           -5.2829    -6.3820    -4.1294 H       
  63 H63           -6.9569    -6.2084    -4.7090 H       
@<TRIPOS>BOND
   1    1    2 1
   2    1    5 1
   3    1   35 1
   4    1   36 1
   5    2    3 1
   6    2    6 1
   7    2   37 1
   8    3    4 1
   9    3   38 1
  10    3   39 1
  11    4   16 1
  12    4   40 1
  13    4   41 1
  14    5   16 1
  15    5   42 1
  16    5   43 1
  17    6    7 1
  18    6   44 1
  19    6   45 1
  20    7    8 1
  21    7   10 1
  22    7   46 1
  23    8    9 2
  24    8   15 am
  25   10   11 1
  26   10   14 1
  27   11   12 ar
  28   11   17 ar
  29   12   13 1
  30   12   20 ar
  31   13   14 2
  32   13   47 1
  33   15   27 1
  34   15   48 1
  35   17   18 ar
  36   17   49 1
  37   18   19 ar
  38   18   50 1
  39   19   20 ar
  40   19   33 1
  41   20   21 1
  42   21   22 2
  43   21   23 2
  44   21   24 1
  45   24   25 1
  46   24   26 1
  47   24   51 1
  48   25   26 1
  49   25   52 1
  50   25   53 1
  51   26   54 1
  52   26   55 1
  53   27   28 1
  54   27   31 2
  55   28   29 2
  56   28   56 1
  57   29   30 1
  58   29   57 1
  59   30   31 1
  60   30   32 1
  61   32   58 1
  62   32   59 1
  63   32   60 1
  64   33   34 1
  65   34   61 1
  66   34   62 1
  67   34   63 1

#	End of record

