#	Name: ASD02500128
#	Creating user name:	WinNT
#	Creation time:	15. 06. 2019 20:22

#	Modifying user name:	WinNT
#	Modification time:	15. 06. 2019 20:22

#	Program:	/corina/corina34_cracker 3.40 0067  02.08.2006

@<TRIPOS>MOLECULE
ASD02500128
  60   64    0    0    0
SMALL
NO_CHARGES


@<TRIPOS>ATOM
   1 N1            -3.9887     5.7113    -1.7359 N.ar    
   2 C2            -5.1678     6.2592    -1.9027 C.ar    
   3 C3            -6.1908     6.0957    -0.9710 C.ar    
   4 C4            -5.9773     5.3476     0.1515 C.ar    
   5 C5            -4.7100     4.7604     0.3272 C.ar    
   6 C6            -4.4164     3.9788     1.4558 C.ar    
   7 C7            -3.1782     3.4281     1.5894 C.ar    
   8 C8            -2.1976     3.6303     0.6206 C.ar    
   9 C9            -2.4480     4.3823    -0.4859 C.ar    
  10 C10           -3.7141     4.9674    -0.6596 C.ar    
  11 S11           -1.1893     4.6224    -1.6953 S.o2    
  12 O12           -1.1587     6.0160    -1.9714 O.2     
  13 O13           -0.0554     3.8943    -1.2444 O.2     
  14 N14           -1.6982     3.8813    -3.0861 N.am    
  15 C15           -1.8694     2.5017    -3.1161 C.ar    
  16 C16           -3.0228     1.9569    -3.6738 C.ar    
  17 C17           -3.1951     0.5920    -3.7050 C.ar    
  18 C18           -2.2106    -0.2477    -3.1759 C.ar    
  19 C19           -1.0535     0.3025    -2.6166 C.ar    
  20 C20           -0.8845     1.6680    -2.5935 C.ar    
  21 C21           -2.3925    -1.7113    -3.2073 C.2     
  22 O22           -1.4629    -2.4331    -3.5132 O.2     
  23 N23           -3.5889    -2.2485    -2.8969 N.am    
  24 C24           -3.7603    -3.7068    -2.8335 C.3     
  25 C25           -4.3215    -4.0747    -1.4544 C.3     
  26 N26           -5.4781    -3.2128    -1.1729 N.am    
  27 C27           -5.3067    -1.7545    -1.2363 C.3     
  28 C28           -4.7441    -1.3865    -2.6099 C.3     
  29 C29           -6.6745    -3.7500    -0.8625 C.2     
  30 C30           -7.8010    -2.8737    -0.4810 C.ar    
  31 C31           -9.1041    -3.2021    -0.8610 C.ar    
  32 C32          -10.1515    -2.3810    -0.5025 C.ar    
  33 C33           -9.9131    -1.2305     0.2338 C.ar    
  34 C34           -8.6213    -0.8995     0.6134 C.ar    
  35 C35           -7.5673    -1.7171     0.2659 C.ar    
  36 O36           -6.8267    -4.9556    -0.8964 O.2     
  37 F37          -10.9433    -0.4289     0.5823 F       
  38 H38           -5.3510     6.8535    -2.7857 H       
  39 H39           -7.1517     6.5603    -1.1362 H       
  40 H40           -6.7589     5.2107     0.8842 H       
  41 H41           -5.1681     3.8155     2.2139 H       
  42 H42           -2.9532     2.8269     2.4579 H       
  43 H43           -1.2229     3.1834     0.7498 H       
  44 H44           -1.8767     4.4095    -3.8798 H       
  45 H45           -3.7832     2.6061    -4.0820 H       
  46 H46           -4.0903     0.1699    -4.1374 H       
  47 H47           -0.2913    -0.3436    -2.2068 H       
  48 H48            0.0113     2.0935    -2.1659 H       
  49 H49           -4.4559    -4.0274    -3.6090 H       
  50 H50           -2.7966    -4.1950    -2.9784 H       
  51 H51           -4.6346    -5.1188    -1.4536 H       
  52 H52           -3.5558    -3.9193    -0.6945 H       
  53 H53           -6.2704    -1.2663    -1.0914 H       
  54 H54           -4.6111    -1.4339    -0.4608 H       
  55 H55           -4.4299    -0.3427    -2.6071 H       
  56 H56           -5.5113    -1.5381    -3.3691 H       
  57 H57           -9.2907    -4.0976    -1.4352 H       
  58 H58          -11.1596    -2.6340    -0.7959 H       
  59 H59           -8.4410    -0.0019     1.1863 H       
  60 H60           -6.5621    -1.4609     0.5662 H       
@<TRIPOS>BOND
   1    1    2 ar
   2    1   10 ar
   3    2    3 ar
   4    2   38 1
   5    3    4 ar
   6    3   39 1
   7    4    5 ar
   8    4   40 1
   9    5    6 ar
  10    5   10 ar
  11    6    7 ar
  12    6   41 1
  13    7    8 ar
  14    7   42 1
  15    8    9 ar
  16    8   43 1
  17    9   10 ar
  18    9   11 1
  19   11   12 2
  20   11   13 2
  21   11   14 am
  22   14   15 1
  23   14   44 1
  24   15   16 ar
  25   15   20 ar
  26   16   17 ar
  27   16   45 1
  28   17   18 ar
  29   17   46 1
  30   18   19 ar
  31   18   21 1
  32   19   20 ar
  33   19   47 1
  34   20   48 1
  35   21   22 2
  36   21   23 am
  37   23   24 1
  38   23   28 1
  39   24   25 1
  40   24   49 1
  41   24   50 1
  42   25   26 1
  43   25   51 1
  44   25   52 1
  45   26   27 1
  46   26   29 am
  47   27   28 1
  48   27   53 1
  49   27   54 1
  50   28   55 1
  51   28   56 1
  52   29   30 1
  53   29   36 2
  54   30   31 ar
  55   30   35 ar
  56   31   32 ar
  57   31   57 1
  58   32   33 ar
  59   32   58 1
  60   33   34 ar
  61   33   37 1
  62   34   35 ar
  63   34   59 1
  64   35   60 1

#	End of record

