#	Name: ASD05300001
#	Creating user name:	WinNT
#	Creation time:	15. 06. 2019 20:58

#	Modifying user name:	WinNT
#	Modification time:	15. 06. 2019 20:58

#	Program:	/corina/corina34_cracker 3.40 0067  02.08.2006

@<TRIPOS>MOLECULE
ASD05300001
  42   44    0    0    0
SMALL
NO_CHARGES


@<TRIPOS>ATOM
   1 C1            -2.4482    -0.4104    -4.0687 C.3     
   2 C2            -2.2581    -1.1043    -2.7184 C.3     
   3 C3            -1.2602    -0.3103    -1.8729 C.3     
   4 N4             0.0651    -0.3736    -2.4940 N.am    
   5 N5             0.4842     0.6355    -3.3137 N.3     
   6 C6             0.6946     0.1718    -4.6073 C.2     
   7 C7             0.6935    -1.2082    -4.8378 C.2     
   8 C8             0.9104    -1.7069    -6.1199 C.2     
   9 C9             1.1325    -0.8274    -7.1791 C.2     
  10 C10            1.1318     0.5466    -6.9511 C.2     
  11 C11            0.9074     1.0487    -5.6649 C.2     
  12 C12            0.8889     2.5007    -5.4636 C.2     
  13 C13            1.3860     3.1206    -4.4450 C.2     
  14 C14            2.0586     2.4802    -3.3100 C.2     
  15 C15            1.5924     1.2831    -2.7801 C.2     
  16 C16            2.2454     0.7076    -1.6842 C.2     
  17 C17            3.3653     1.3232    -1.1306 C.2     
  18 C18            3.8396     2.5183    -1.6704 C.2     
  19 C19            3.1873     3.0945    -2.7578 C.2     
  20 C20            0.8709    -1.4275    -2.2565 C.2     
  21 O21            0.4956    -2.3311    -1.5226 O.co2   
  22 O22            1.9774    -1.4804    -2.7750 O.co2   
  23 C23           -3.6009    -1.1766    -1.9886 C.3     
  24 H24           -2.8834     0.5766    -3.9119 H       
  25 H25           -1.4824    -0.3072    -4.5633 H       
  26 H26           -3.1143    -1.0062    -4.6927 H       
  27 H27           -1.8769    -2.1128    -2.8786 H       
  28 H28           -1.5830     0.7290    -1.8106 H       
  29 H29           -1.2127    -0.7367    -0.8710 H       
  30 H30            0.5241    -1.8900    -4.0175 H       
  31 H31            0.9069    -2.7729    -6.2936 H       
  32 H32            1.3051    -1.2108    -8.1739 H       
  33 H33            1.3055     1.2276    -7.7712 H       
  34 H34            0.4217     3.1015    -6.2299 H       
  35 H35            1.2997     4.1970    -4.4282 H       
  36 H36            1.8789    -0.2180    -1.2657 H       
  37 H37            3.8654     0.8758    -0.2843 H       
  38 H38            4.7102     2.9961    -1.2460 H       
  39 H39            3.5547     4.0198    -3.1764 H       
  40 H40           -4.3118    -1.7422    -2.5909 H       
  41 H41           -3.4654    -1.6709    -1.0266 H       
  42 H42           -3.9821    -0.1680    -1.8283 H       
@<TRIPOS>BOND
   1    1    2 1
   2    1   24 1
   3    1   25 1
   4    1   26 1
   5    2    3 1
   6    2   23 1
   7    2   27 1
   8    3    4 1
   9    3   28 1
  10    3   29 1
  11    4    5 1
  12    4   20 am
  13    5    6 1
  14    5   15 1
  15    6    7 2
  16    6   11 1
  17    7    8 1
  18    7   30 1
  19    8    9 2
  20    8   31 1
  21    9   10 1
  22    9   32 1
  23   10   11 2
  24   10   33 1
  25   11   12 1
  26   12   13 2
  27   12   34 1
  28   13   14 1
  29   13   35 1
  30   14   15 2
  31   14   19 1
  32   15   16 1
  33   16   17 2
  34   16   36 1
  35   17   18 1
  36   17   37 1
  37   18   19 2
  38   18   38 1
  39   19   39 1
  40   20   21 ar
  41   20   22 ar
  42   23   40 1
  43   23   41 1
  44   23   42 1

#	End of record

