#	Name: ASD07480021
#	Creating user name:	WinNT
#	Creation time:	15. 06. 2019 21:11

#	Modifying user name:	WinNT
#	Modification time:	15. 06. 2019 21:11

#	Program:	/corina/corina34_cracker 3.40 0067  02.08.2006

@<TRIPOS>MOLECULE
ASD07480021
  62   67    0    0    0
SMALL
NO_CHARGES


@<TRIPOS>ATOM
   1 C1            -0.0170     1.4044     0.0098 C.2     
   2 C2             0.0021    -0.0041     0.0020 C.2     
   3 N3             1.1387    -0.6606    -0.0123 N.2     
   4 N4             2.3537     0.0270    -0.0202 N.pl3   
   5 C5             2.3691     1.4002    -0.0130 C.2     
   6 C6             1.1495     2.1027     0.0024 C.2     
   7 C7             3.6601    -0.3624    -0.0348 C.2     
   8 N8             4.3966     0.7335    -0.0359 N.2     
   9 N9             3.6398     1.7744    -0.0231 N.2     
  10 N10           -1.1977    -0.7076     0.0101 N.pl3   
  11 C11           -2.5448    -0.1087     0.0262 C.3     
  12 C12            4.1594    -1.7532    -0.0465 C.ar    
  13 C13            5.4914    -2.0157    -0.3735 C.ar    
  14 C14            5.9540    -3.3138    -0.3831 C.ar    
  15 C15            5.0959    -4.3615    -0.0681 C.ar    
  16 C16            3.7691    -4.1036     0.2574 C.ar    
  17 C17            3.3017    -2.8073     0.2749 C.ar    
  18 N18            5.5677    -5.6756    -0.0792 N.3     
  19 C19            4.5018    -6.6209     0.2814 C.3     
  20 C20            5.0366    -8.0513     0.1805 C.3     
  21 N21            6.1948    -8.2027     1.0723 N.3     
  22 C22            7.2606    -7.2574     0.7116 C.3     
  23 C23            6.7259    -5.8269     0.8126 C.3     
  24 C24           -3.4565    -1.1999     0.6409 C.3     
  25 C25           -2.8416    -2.4928     0.0429 C.3     
  26 C26           -1.3327    -2.1715    -0.0023 C.3     
  27 C27           -0.7254    -2.7385    -1.2596 C.ar    
  28 C28           -0.0043    -3.9161    -1.2080 C.ar    
  29 C29            0.5536    -4.4368    -2.3636 C.ar    
  30 C30            0.3881    -3.7768    -3.5692 C.ar    
  31 C31           -0.3336    -2.5991    -3.6183 C.ar    
  32 C32           -0.8948    -2.0832    -2.4653 C.ar    
  33 F33            1.2592    -5.5879    -2.3143 F       
  34 C34            6.6911    -9.5852     1.0606 C.3     
  35 H35           -0.9601     1.9307     0.0171 H       
  36 H36            1.1405     3.1826     0.0086 H       
  37 H37           -2.5542     0.7873     0.6467 H       
  38 H38           -2.8669     0.1277    -0.9879 H       
  39 H39            6.1582    -1.2024    -0.6189 H       
  40 H40            6.9840    -3.5176    -0.6358 H       
  41 H41            3.1049    -4.9197     0.5008 H       
  42 H42            2.2709    -2.6076     0.5278 H       
  43 H43            4.1736    -6.4266     1.3025 H       
  44 H44            3.6607    -6.4981    -0.4008 H       
  45 H45            4.2563    -8.7529     0.4755 H       
  46 H46            5.3395    -8.2547    -0.8467 H       
  47 H47            8.1018    -7.3802     1.3939 H       
  48 H48            7.5888    -7.4517    -0.3094 H       
  49 H49            7.5061    -5.1253     0.5176 H       
  50 H50            6.4229    -5.6236     1.8397 H       
  51 H51           -3.3861    -1.2006     1.7286 H       
  52 H52           -4.4898    -1.0731     0.3179 H       
  53 H53           -3.0370    -3.3478     0.6901 H       
  54 H54           -3.2241    -2.6729    -0.9618 H       
  55 H55           -0.8378    -2.5919     0.8731 H       
  56 H56            0.1244    -4.4299    -0.2669 H       
  57 H57            0.8231    -4.1819    -4.4709 H       
  58 H58           -0.4629    -2.0840    -4.5587 H       
  59 H59           -1.4589    -1.1630    -2.5046 H       
  60 H60            6.9920    -9.8547     0.0482 H       
  61 H61            7.5481    -9.6693     1.7289 H       
  62 H62            5.9015   -10.2576     1.3961 H       
@<TRIPOS>BOND
   1    1    2 1
   2    1    6 2
   3    1   35 1
   4    2    3 2
   5    2   10 1
   6    3    4 1
   7    4    5 1
   8    4    7 1
   9    5    6 1
  10    5    9 2
  11    6   36 1
  12    7    8 2
  13    7   12 1
  14    8    9 1
  15   10   11 1
  16   10   26 1
  17   11   24 1
  18   11   37 1
  19   11   38 1
  20   12   13 ar
  21   12   17 ar
  22   13   14 ar
  23   13   39 1
  24   14   15 ar
  25   14   40 1
  26   15   16 ar
  27   15   18 1
  28   16   17 ar
  29   16   41 1
  30   17   42 1
  31   18   19 1
  32   18   23 1
  33   19   20 1
  34   19   43 1
  35   19   44 1
  36   20   21 1
  37   20   45 1
  38   20   46 1
  39   21   22 1
  40   21   34 1
  41   22   23 1
  42   22   47 1
  43   22   48 1
  44   23   49 1
  45   23   50 1
  46   24   25 1
  47   24   51 1
  48   24   52 1
  49   25   26 1
  50   25   53 1
  51   25   54 1
  52   26   27 1
  53   26   55 1
  54   27   28 ar
  55   27   32 ar
  56   28   29 ar
  57   28   56 1
  58   29   30 ar
  59   29   33 1
  60   30   31 ar
  61   30   57 1
  62   31   32 ar
  63   31   58 1
  64   32   59 1
  65   34   60 1
  66   34   61 1
  67   34   62 1

#	End of record

