#	Name: ASD01816762
#	Creating user name:	WinNT
#	Creation time:	15. 06. 2019 19:35

#	Modifying user name:	WinNT
#	Modification time:	15. 06. 2019 19:35

#	Program:	/corina/corina34_cracker 3.40 0067  02.08.2006

@<TRIPOS>MOLECULE
ASD01816762
  70   74    0    0    0
SMALL
NO_CHARGES


@<TRIPOS>ATOM
   1 C1            -0.3601     0.8169     0.2997 C.2     
   2 C2            -0.1407    -0.5481     0.1243 C.2     
   3 C3             1.1383    -1.0513     0.0523 C.2     
   4 C4             2.2421    -0.1956     0.1548 C.2     
   5 N5             1.9780     1.1518     0.3293 N.am    
   6 C6             0.7052     1.6369     0.3980 C.2     
   7 C7             3.5805    -0.5926     0.0952 C.2     
   8 C8             4.5983     0.3288     0.2073 C.2     
   9 C9             4.3086     1.6854     0.3833 C.2     
  10 C10            2.9587     2.0711     0.4409 C.2     
  11 C11            4.0664    -2.0092    -0.0902 C.3     
  12 O12            2.6723     3.2480     0.5939 O.2     
  13 C13            5.3790     2.6787     0.5039 C.2     
  14 O14            6.5394     2.3177     0.5715 O.2     
  15 N15            4.3352    -2.6104     1.2229 N.3     
  16 C16            4.4347    -4.0721     1.1220 C.3     
  17 C17            4.5690    -4.6734     2.5229 C.3     
  18 C18            5.8186    -4.1037     3.2000 C.3     
  19 C19            5.7118    -2.5770     3.2489 C.3     
  20 C20            5.5443    -2.0364     1.8270 C.3     
  21 C21            5.9235    -4.6464     4.6019 C.ar    
  22 N22            4.8784    -5.2303     5.1546 N.ar    
  23 C23            4.9240    -5.7197     6.3784 C.ar    
  24 C24            6.0802    -5.6358     7.1306 C.ar    
  25 C25            7.2001    -5.0284     6.5829 C.ar    
  26 C26            7.1159    -4.5313     5.2916 C.ar    
  27 C27            7.0135    -4.4888     2.4313 C.1     
  28 N28            7.9356    -4.7860     1.8382 N.1     
  29 C29            1.1956    -2.5471    -0.1383 C.3     
  30 N30            5.0786     3.9921     0.5400 N.am    
  31 C31            6.1521     4.9888     0.5563 C.3     
  32 C32            5.6322     6.3112    -0.0158 C.3     
  33 C33            6.6180     5.2168     1.9976 C.3     
  34 C34            7.6838     6.3157     2.0134 C.3     
  35 O35            7.1448     7.5084     1.4399 O.3     
  36 C36            6.7361     7.3678     0.0778 C.3     
  37 C37            8.4799    -4.9165     7.3707 C.3     
  38 H38           -1.3622     1.2119     0.3604 H       
  39 H39           -0.9751    -1.2322     0.0420 H       
  40 H40            0.5462     2.6978     0.5348 H       
  41 H41            5.6230    -0.0147     0.1569 H       
  42 H42            3.3026    -2.5906    -0.6065 H       
  43 H43            4.9817    -2.0048    -0.6820 H       
  44 H44            3.5381    -4.4649     0.6426 H       
  45 H45            5.3095    -4.3364     0.5279 H       
  46 H46            3.6882    -4.4211     3.1132 H       
  47 H47            4.6585    -5.7571     2.4466 H       
  48 H48            4.8489    -2.2917     3.8507 H       
  49 H49            6.6177    -2.1628     3.6914 H       
  50 H50            6.4139    -2.3102     1.2296 H       
  51 H51            5.4536    -0.9506     1.8596 H       
  52 H52            4.0475    -6.1911     6.7977 H       
  53 H53            6.1111    -6.0378     8.1325 H       
  54 H54            7.9686    -4.0524     4.8333 H       
  55 H55            0.1872    -2.9582    -0.0923 H       
  56 H56            1.6362    -2.7731    -1.1094 H       
  57 H57            1.8050    -2.9906     0.6491 H       
  58 H58            4.1517     4.2773     0.5553 H       
  59 H59            6.9891     4.6351    -0.0458 H       
  60 H60            5.3499     6.1708    -1.0592 H       
  61 H61            4.7644     6.6394     0.5563 H       
  62 H62            5.7701     5.5229     2.6103 H       
  63 H63            7.0407     4.2936     2.3941 H       
  64 H64            7.9882     6.5120     3.0415 H       
  65 H65            8.5482     5.9920     1.4337 H       
  66 H66            7.5881     7.0579    -0.5273 H       
  67 H67            6.3578     8.3222    -0.2886 H       
  68 H68            9.0974    -5.7958     7.1875 H       
  69 H69            9.0202    -4.0220     7.0609 H       
  70 H70            8.2476    -4.8507     8.4337 H       
@<TRIPOS>BOND
   1    1    2 1
   2    1    6 2
   3    1   38 1
   4    2    3 2
   5    2   39 1
   6    3    4 1
   7    3   29 1
   8    4    5 1
   9    4    7 2
  10    5    6 1
  11    5   10 am
  12    6   40 1
  13    7    8 1
  14    7   11 1
  15    8    9 2
  16    8   41 1
  17    9   10 1
  18    9   13 1
  19   10   12 2
  20   11   15 1
  21   11   42 1
  22   11   43 1
  23   13   14 2
  24   13   30 am
  25   15   16 1
  26   15   20 1
  27   16   17 1
  28   16   44 1
  29   16   45 1
  30   17   18 1
  31   17   46 1
  32   17   47 1
  33   18   19 1
  34   18   21 1
  35   18   27 1
  36   19   20 1
  37   19   48 1
  38   19   49 1
  39   20   50 1
  40   20   51 1
  41   21   22 ar
  42   21   26 ar
  43   22   23 ar
  44   23   24 ar
  45   23   52 1
  46   24   25 ar
  47   24   53 1
  48   25   26 ar
  49   25   37 1
  50   26   54 1
  51   27   28 3
  52   29   55 1
  53   29   56 1
  54   29   57 1
  55   30   31 1
  56   30   58 1
  57   31   32 1
  58   31   33 1
  59   31   59 1
  60   32   36 1
  61   32   60 1
  62   32   61 1
  63   33   34 1
  64   33   62 1
  65   33   63 1
  66   34   35 1
  67   34   64 1
  68   34   65 1
  69   35   36 1
  70   36   66 1
  71   36   67 1
  72   37   68 1
  73   37   69 1
  74   37   70 1

#	End of record

