#	Name: ASD03730268
#	Creating user name:	WinNT
#	Creation time:	15. 06. 2019 20:44

#	Modifying user name:	WinNT
#	Modification time:	15. 06. 2019 20:44

#	Program:	/corina/corina34_cracker 3.40 0067  02.08.2006

@<TRIPOS>MOLECULE
ASD03730268
  57   62    0    0    0
SMALL
NO_CHARGES


@<TRIPOS>ATOM
   1 O1            -0.4730     1.1200     1.3781 O.3     
   2 C2            -0.3995    -0.3158     1.4557 C.3     
   3 O3             0.6716    -0.6524     0.5543 O.3     
   4 C4             1.4895     0.4410     0.5346 C.ar    
   5 C5             0.7844     1.5310     1.0394 C.ar    
   6 C6             2.8005     0.5964     0.1219 C.ar    
   7 C7             3.4226     1.8385     0.2029 C.ar    
   8 C8             2.7051     2.9222     0.7003 C.ar    
   9 C9             1.4000     2.7688     1.1192 C.ar    
  10 O10            4.6945     2.2000    -0.1314 O.3     
  11 C11            3.6258     4.1113     0.6370 C.3     
  12 C12            4.7574     3.6314    -0.2821 C.3     
  13 N13            3.0578     6.2886     1.0352 N.am    
  14 C14            2.9416     5.3320     0.0925 C.2     
  15 C15            4.1355     4.5116     1.9895 C.ar    
  16 C16            4.8447     3.8495     2.9821 C.ar    
  17 C17            5.1763     4.5175     4.1605 C.ar    
  18 C18            4.7959     5.8340     4.3309 C.ar    
  19 C19            4.0911     6.4920     3.3435 C.ar    
  20 C20            3.7540     5.8377     2.1598 C.ar    
  21 O21            2.3924     5.4367    -0.9838 O.2     
  22 C22            2.5172     7.6432     0.8968 C.3     
  23 C23            1.0885     7.6804     1.4430 C.3     
  24 C24            0.5239     9.0950     1.2985 C.3     
  25 C25           -0.9048     9.1322     1.8447 C.3     
  26 C26           -1.4694    10.5469     1.7002 C.3     
  27 C27            5.2484     2.4346     2.7902 C.ar    
  28 C28            4.7347     1.4423     3.6230 C.ar    
  29 C29            5.1132     0.1271     3.4408 C.ar    
  30 C30            6.0034    -0.2063     2.4311 C.ar    
  31 C31            6.5157     0.7775     1.6017 C.ar    
  32 C32            6.1376     2.0937     1.7732 C.ar    
  33 F33            6.3722    -1.4941     2.2563 F       
  34 Cl34           4.4745    -1.1105     4.4772 Cl      
  35 H35           -0.1599    -0.6329     2.4706 H       
  36 H36           -1.3352    -0.7658     1.1236 H       
  37 H37            3.3450    -0.2520    -0.2655 H       
  38 H38            0.8568     3.6162     1.5106 H       
  39 H39            5.7201     4.0145     0.0564 H       
  40 H40            4.5660     3.9207    -1.3155 H       
  41 H41            5.7277     4.0075     4.9365 H       
  42 H42            5.0515     6.3522     5.2433 H       
  43 H43            3.7986     7.5214     3.4891 H       
  44 H44            3.1388     8.3415     1.4573 H       
  45 H45            2.5113     7.9262    -0.1558 H       
  46 H46            0.4670     6.9821     0.8825 H       
  47 H47            1.0945     7.3973     2.4956 H       
  48 H48            1.1455     9.7933     1.8590 H       
  49 H49            0.5180     9.3781     0.2459 H       
  50 H50           -1.5263     8.4339     1.2842 H       
  51 H51           -0.8988     8.8492     2.8973 H       
  52 H52           -0.8478    11.2452     2.2607 H       
  53 H53           -1.4753    10.8299     0.6476 H       
  54 H54           -2.4872    10.5734     2.0893 H       
  55 H55            4.0420     1.7017     4.4099 H       
  56 H56            7.2087     0.5135     0.8165 H       
  57 H57            6.5344     2.8593     1.1229 H       
@<TRIPOS>BOND
   1    1    2 1
   2    1    5 1
   3    2    3 1
   4    2   35 1
   5    2   36 1
   6    3    4 1
   7    4    5 ar
   8    4    6 ar
   9    5    9 ar
  10    6    7 ar
  11    6   37 1
  12    7    8 ar
  13    7   10 1
  14    8    9 ar
  15    8   11 1
  16    9   38 1
  17   10   12 1
  18   11   12 1
  19   11   14 1
  20   11   15 1
  21   12   39 1
  22   12   40 1
  23   13   14 am
  24   13   20 1
  25   13   22 1
  26   14   21 2
  27   15   16 ar
  28   15   20 ar
  29   16   17 ar
  30   16   27 1
  31   17   18 ar
  32   17   41 1
  33   18   19 ar
  34   18   42 1
  35   19   20 ar
  36   19   43 1
  37   22   23 1
  38   22   44 1
  39   22   45 1
  40   23   24 1
  41   23   46 1
  42   23   47 1
  43   24   25 1
  44   24   48 1
  45   24   49 1
  46   25   26 1
  47   25   50 1
  48   25   51 1
  49   26   52 1
  50   26   53 1
  51   26   54 1
  52   27   28 ar
  53   27   32 ar
  54   28   29 ar
  55   28   55 1
  56   29   30 ar
  57   29   34 1
  58   30   31 ar
  59   30   33 1
  60   31   32 ar
  61   31   56 1
  62   32   57 1

#	End of record

