#	Name: ASD07300416
#	Creating user name:	WinNT
#	Creation time:	15. 06. 2019 21:09

#	Modifying user name:	WinNT
#	Modification time:	15. 06. 2019 21:09

#	Program:	/corina/corina34_cracker 3.40 0067  02.08.2006

@<TRIPOS>MOLECULE
ASD07300416
  15   16    0    0    0
SMALL
NO_CHARGES


@<TRIPOS>ATOM
   1 C1            -0.0170     1.4026     0.0098 C.ar    
   2 C2             0.0021    -0.0041     0.0020 C.ar    
   3 C3             1.2181    -0.6693    -0.0136 C.ar    
   4 C4             2.3799     0.0876    -0.0210 C.ar    
   5 C5             2.2924     1.4688    -0.0128 C.ar    
   6 N6             1.1275     2.0823     0.0025 N.ar    
   7 C7            -2.0892     0.7176     0.0346 C.2     
   8 N8            -1.3195     1.7801     0.0297 N.2     
   9 N9            -1.3211    -0.4114     0.0129 N.pl3   
  10 S10           -3.8508     0.7435     0.0596 S.3     
  11 H11            1.2596    -1.7485    -0.0194 H       
  12 H12            3.3451    -0.3967    -0.0328 H       
  13 H13            3.1989     2.0559    -0.0186 H       
  14 H14           -1.6422    -1.3267     0.0109 H       
  15 H15           -4.1151     0.7542    -1.3254 H       
@<TRIPOS>BOND
   1    1    2 ar
   2    1    6 ar
   3    1    8 1
   4    2    3 ar
   5    2    9 1
   6    3    4 ar
   7    3   11 1
   8    4    5 ar
   9    4   12 1
  10    5    6 ar
  11    5   13 1
  12    7    8 2
  13    7    9 1
  14    7   10 1
  15    9   14 1
  16   10   15 1

#	End of record

