#	Name: ASD01913784
#	Creating user name:	WinNT
#	Creation time:	15. 06. 2019 20:02

#	Modifying user name:	WinNT
#	Modification time:	15. 06. 2019 20:02

#	Program:	/corina/corina34_cracker 3.40 0067  02.08.2006

@<TRIPOS>MOLECULE
ASD01913784
  39   42    0    0    0
SMALL
NO_CHARGES


@<TRIPOS>ATOM
   1 C1            -0.0097     1.3645    -0.1748 C.ar    
   2 C2            -0.0007     0.0019     0.0661 C.ar    
   3 C3             1.1937    -0.6606     0.2883 C.ar    
   4 C4             2.3851     0.0341     0.2707 C.ar    
   5 C5             2.3839     1.4102     0.0276 C.ar    
   6 C6             1.1738     2.0724    -0.1955 C.ar    
   7 C7             3.6168     2.1384     0.0081 C.1     
   8 C8             4.6276     2.7354    -0.0078 C.1     
   9 C9             5.8604     3.4636    -0.0273 C.ar    
  10 C10            5.8676     4.8453    -0.2706 C.ar    
  11 C11            8.2483     4.7810    -0.0487 C.ar    
  12 N12            8.2084     3.4776     0.1839 N.ar    
  13 C13            7.0734     2.8102     0.2013 C.ar    
  14 C14            7.0812     5.5031    -0.2794 C.ar    
  15 N15            9.4756     5.4396    -0.0561 N.am    
  16 C16            9.6475     6.7701    -0.0506 C.2     
  17 O17           10.9339     7.1498    -0.0601 O.3     
  18 C18           11.7730     5.9707    -0.0739 C.3     
  19 C19           10.7978     4.7889    -0.0648 C.3     
  20 O20            8.7231     7.5585    -0.0386 O.2     
  21 C21           12.8607     5.9284    -1.1464 C.3     
  22 C22           13.7486     5.2368    -0.0958 C.3     
  23 C23           12.8802     5.9172     0.9780 C.3     
  24 H24           -0.9454     1.8742    -0.3514 H       
  25 H25           -0.9306    -0.5473     0.0812 H       
  26 H26            1.1930    -1.7241     0.4764 H       
  27 H27            3.3165    -0.4842     0.4446 H       
  28 H28            1.1653     3.1357    -0.3843 H       
  29 H29            4.9466     5.3809    -0.4470 H       
  30 H30            7.0805     1.7476     0.3945 H       
  31 H31            7.1245     6.5664    -0.4636 H       
  32 H32           10.9392     4.1807     0.8286 H       
  33 H33           10.9169     4.1854    -0.9647 H       
  34 H34           12.6126     5.2926    -1.9963 H       
  35 H35           13.2208     6.9134    -1.4434 H       
  36 H36           13.6643     4.1501    -0.1008 H       
  37 H37           14.7826     5.5817    -0.1035 H       
  38 H38           13.2457     6.8991     1.2787 H       
  39 H39           12.6476     5.2725     1.8256 H       
@<TRIPOS>BOND
   1    1    2 ar
   2    1    6 ar
   3    1   24 1
   4    2    3 ar
   5    2   25 1
   6    3    4 ar
   7    3   26 1
   8    4    5 ar
   9    4   27 1
  10    5    6 ar
  11    5    7 1
  12    6   28 1
  13    7    8 3
  14    8    9 1
  15    9   10 ar
  16    9   13 ar
  17   10   14 ar
  18   10   29 1
  19   11   12 ar
  20   11   15 1
  21   11   14 ar
  22   12   13 ar
  23   13   30 1
  24   14   31 1
  25   15   16 am
  26   15   19 1
  27   16   17 1
  28   16   20 2
  29   17   18 1
  30   18   19 1
  31   18   21 1
  32   18   23 1
  33   19   32 1
  34   19   33 1
  35   21   22 1
  36   21   34 1
  37   21   35 1
  38   22   23 1
  39   22   36 1
  40   22   37 1
  41   23   38 1
  42   23   39 1

#	End of record

