#	Name: ASD08390045
#	Creating user name:	WinNT
#	Creation time:	15. 06. 2019 21:19

#	Modifying user name:	WinNT
#	Modification time:	15. 06. 2019 21:19

#	Program:	/corina/corina34_cracker 3.40 0067  02.08.2006

@<TRIPOS>MOLECULE
ASD08390045
  49   51    0    0    0
SMALL
NO_CHARGES


@<TRIPOS>ATOM
   1 C1             1.3727     0.8681    -0.7180 C.3     
   2 C2             2.4699    -0.0531    -1.2873 C.3     
   3 N3             2.1354     1.8730     0.0414 N.pl3   
   4 C4             3.4693     1.5775    -0.0718 C.2     
   5 N5             3.7217     0.5322    -0.7879 N.2     
   6 C6             4.5297     2.3871     0.5710 C.ar    
   7 C7             4.3071     3.7343     0.8542 C.ar    
   8 C8             5.2991     4.4835     1.4533 C.ar    
   9 C9             6.5125     3.9009     1.7724 C.ar    
  10 C10            6.7394     2.5650     1.4935 C.ar    
  11 C11            5.7528     1.8038     0.9008 C.ar    
  12 C12            0.5956     1.5209    -1.8321 C.ar    
  13 C13            1.5662     2.9968     0.7893 C.3     
  14 C14           -0.6366     1.0162    -2.2033 C.ar    
  15 C15           -1.3493     1.6149    -3.2253 C.ar    
  16 C16           -0.8301     2.7185    -3.8758 C.ar    
  17 C17            0.4018     3.2238    -3.5040 C.ar    
  18 C18            1.1126     2.6277    -2.4791 C.ar    
  19 C19            2.4436    -0.0370    -2.7940 C.2     
  20 O20            1.8008    -0.8644    -3.3959 O.2     
  21 O21            3.1343     0.8964    -3.4674 O.3     
  22 C22            1.6028     4.2570    -0.0774 C.3     
  23 C23            2.3713     3.2254     2.0425 C.2     
  24 O24            3.1592     2.3887     2.4155 O.2     
  25 O25            2.2132     4.3586     2.7444 O.3     
  26 C26            3.0217     4.5111     3.9408 C.3     
  27 C27            2.2959    -1.4805    -0.7646 C.3     
  28 H28            0.7071     0.3113    -0.0585 H       
  29 H29            3.3605     4.1905     0.6049 H       
  30 H30            5.1279     5.5270     1.6731 H       
  31 H31            7.2860     4.4914     2.2409 H       
  32 H32            7.6889     2.1158     1.7447 H       
  33 H33            5.9309     0.7609     0.6838 H       
  34 H34            0.5342     2.7697     1.0569 H       
  35 H35           -1.0423     0.1539    -1.6951 H       
  36 H36           -2.3117     1.2201    -3.5158 H       
  37 H37           -1.3866     3.1859    -4.6747 H       
  38 H38            0.8076     4.0858    -4.0125 H       
  39 H39            2.0750     3.0224    -2.1887 H       
  40 H40            3.0868     0.8664    -4.4328 H       
  41 H41            0.7915     4.2217    -0.8045 H       
  42 H42            1.4855     5.1368     0.5554 H       
  43 H43            2.5575     4.3105    -0.6007 H       
  44 H44            2.7978     3.7022     4.6363 H       
  45 H45            4.0776     4.4777     3.6725 H       
  46 H46            2.7966     5.4680     4.4119 H       
  47 H47            1.3210    -1.8621    -1.0677 H       
  48 H48            3.0793    -2.1164    -1.1770 H       
  49 H49            2.3637    -1.4798     0.3233 H       
@<TRIPOS>BOND
   1    1    2 1
   2    1    3 1
   3    1   12 1
   4    1   28 1
   5    2   19 1
   6    2   27 1
   7    2    5 1
   8    3    4 1
   9    3   13 1
  10    4    5 2
  11    4    6 1
  12    6    7 ar
  13    6   11 ar
  14    7    8 ar
  15    7   29 1
  16    8    9 ar
  17    8   30 1
  18    9   10 ar
  19    9   31 1
  20   10   11 ar
  21   10   32 1
  22   11   33 1
  23   12   14 ar
  24   12   18 ar
  25   13   22 1
  26   13   23 1
  27   13   34 1
  28   14   15 ar
  29   14   35 1
  30   15   16 ar
  31   15   36 1
  32   16   17 ar
  33   16   37 1
  34   17   18 ar
  35   17   38 1
  36   18   39 1
  37   19   20 2
  38   19   21 1
  39   21   40 1
  40   22   41 1
  41   22   42 1
  42   22   43 1
  43   23   24 2
  44   23   25 1
  45   25   26 1
  46   26   44 1
  47   26   45 1
  48   26   46 1
  49   27   47 1
  50   27   48 1
  51   27   49 1

#	End of record

