#	Name: ASD03430950
#	Creating user name:	WinNT
#	Creation time:	15. 06. 2019 20:41

#	Modifying user name:	WinNT
#	Modification time:	15. 06. 2019 20:41

#	Program:	/corina/corina34_cracker 3.40 0067  02.08.2006

@<TRIPOS>MOLECULE
ASD03430950
  39   43    0    0    0
SMALL
NO_CHARGES


@<TRIPOS>ATOM
   1 C1             0.0021    -0.0041     0.0020 C.1     
   2 C2            -0.0179     1.4678     0.0101 C.3     
   3 C3             1.4175     1.9974    -0.0007 C.3     
   4 N4             0.0175    -1.1399    -0.0042 N.1     
   5 O5            -3.3655     6.8884     2.2109 O.3     
   6 C6            -3.7842     8.2424     2.4644 C.3     
   7 O7            -2.5972     8.8779     2.9747 O.3     
   8 C8            -1.5510     8.1853     2.4356 C.ar    
   9 C9            -2.0239     6.9616     1.9671 C.ar    
  10 C10           -0.2118     8.5057     2.3037 C.ar    
  11 C11            0.6715     7.6116     1.7061 C.ar    
  12 C12            0.1889     6.3889     1.2494 C.ar    
  13 C13           -1.1470     6.0691     1.3739 C.ar    
  14 O14            2.0082     7.7362     1.4652 O.3     
  15 C15            1.3706     5.6437     0.6889 C.3     
  16 C16            2.5719     6.4317     1.2286 C.3     
  17 N17            1.3976     3.4622     0.0073 N.am    
  18 C18            1.3986     4.2086     1.1298 C.2     
  19 C19            1.3586     5.5991    -0.8104 C.ar    
  20 C20            1.3355     6.5658    -1.7908 C.ar    
  21 C21            1.3310     6.1996    -3.1250 C.ar    
  22 C22            1.3491     4.8607    -3.4713 C.ar    
  23 C23            1.3712     3.8888    -2.4929 C.ar    
  24 C24            1.3763     4.2482    -1.1474 C.ar    
  25 O25            1.4185     3.8009     2.2719 O.2     
  26 H26           -0.5451     1.8289    -0.8729 H       
  27 H27           -0.5281     1.8193     0.9069 H       
  28 H28            1.9447     1.6363     0.8823 H       
  29 H29            1.9277     1.6458    -0.8975 H       
  30 H30           -4.1086     8.7222     1.5411 H       
  31 H31           -4.5803     8.2642     3.2087 H       
  32 H32            0.1507     9.4559     2.6669 H       
  33 H33           -1.5099     5.1199     1.0082 H       
  34 H34            3.3672     6.4827     0.4849 H       
  35 H35            2.9367     5.9934     2.1575 H       
  36 H36            1.3212     7.6107    -1.5180 H       
  37 H37            1.3138     6.9575    -3.8942 H       
  38 H38            1.3454     4.5749    -4.5128 H       
  39 H39            1.3847     2.8453    -2.7712 H       
@<TRIPOS>BOND
   1    1    2 1
   2    1    4 3
   3    2    3 1
   4    2   26 1
   5    2   27 1
   6    3   17 1
   7    3   28 1
   8    3   29 1
   9    5    6 1
  10    5    9 1
  11    6    7 1
  12    6   30 1
  13    6   31 1
  14    7    8 1
  15    8    9 ar
  16    8   10 ar
  17    9   13 ar
  18   10   11 ar
  19   10   32 1
  20   11   12 ar
  21   11   14 1
  22   12   13 ar
  23   12   15 1
  24   13   33 1
  25   14   16 1
  26   15   16 1
  27   15   18 1
  28   15   19 1
  29   16   34 1
  30   16   35 1
  31   17   18 am
  32   17   24 1
  33   18   25 2
  34   19   20 ar
  35   19   24 ar
  36   20   21 ar
  37   20   36 1
  38   21   22 ar
  39   21   37 1
  40   22   23 ar
  41   22   38 1
  42   23   24 ar
  43   23   39 1

#	End of record

