#	Name: ASD05430253
#	Creating user name:	WinNT
#	Creation time:	15. 06. 2019 21:00

#	Modifying user name:	WinNT
#	Modification time:	15. 06. 2019 21:00

#	Program:	/corina/corina34_cracker 3.40 0067  02.08.2006

@<TRIPOS>MOLECULE
ASD05430253
  64   69    0    0    0
SMALL
NO_CHARGES


@<TRIPOS>ATOM
   1 C1            -0.0120     1.4061    -0.1181 C.ar    
   2 C2            -0.0196     0.1503    -0.7242 C.ar    
   3 C3             1.1658    -0.4110    -1.1816 C.ar    
   4 C4             2.3548     0.2704    -1.0386 C.ar    
   5 C5             2.3700     1.5304    -0.4316 C.ar    
   6 C6             1.1769     2.0954     0.0288 C.ar    
   7 C7             4.8163     0.0764     0.1111 C.3     
   8 C8             4.7888     1.5812    -0.1051 C.2     
   9 C9             3.6394     2.2598    -0.2775 C.2     
  10 C10            5.8641    -0.2280     1.1897 C.3     
  11 C11            7.2897     0.2454     0.8781 C.3     
  12 N12            7.2361     1.6369     0.4352 N.pl3   
  13 C13            6.1082     2.2507    -0.1131 C.2     
  14 N14            6.4152     3.4060    -0.6042 N.2     
  15 N15           -1.2260    -0.5474    -0.8718 N.pl3   
  16 C16           -1.6993    -1.1223    -2.0228 C.2     
  17 C17           -2.8849    -1.6843    -1.7192 C.2     
  18 N18           -3.1334    -1.4616    -0.4201 N.2     
  19 C19           -2.1445    -0.7867     0.0999 C.2     
  20 C20           -3.7784    -2.4331    -2.6742 C.3     
  21 C21            8.2825     2.6610     0.4759 C.3     
  22 O22            7.8062     3.6548    -0.4554 O.3     
  23 C23            8.4032     3.2437     1.8604 C.ar    
  24 O24           -1.1749     1.9549     0.3234 O.3     
  25 C25            9.6215     2.0839     0.0123 C.3     
  26 C26            8.8716     4.5332     2.0283 C.ar    
  27 C27            8.1499     3.0220     4.2318 C.ar    
  28 C28            8.0401     2.4898     2.9610 C.ar    
  29 C29            8.6239     4.3110     4.4037 C.ar    
  30 F30            8.7315     4.8320     5.6455 F       
  31 C31            5.4091    -0.1896     2.6481 C.3     
  32 C32            5.7095    -1.5306     1.9749 C.3     
  33 C33           -1.0930     3.2441     0.9344 C.3     
  34 C34           10.7176     3.1377     0.1833 C.3     
  35 C35            8.9827     5.0691     3.2996 C.ar    
  36 F36            9.4408     6.3293     3.4645 F       
  37 H37            1.1555    -1.3840    -1.6501 H       
  38 H38            3.2750    -0.1685    -1.3948 H       
  39 H39            1.1842     3.0683     0.4977 H       
  40 H40            3.8360    -0.2662     0.4424 H       
  41 H41            5.0878    -0.4245    -0.8182 H       
  42 H42            3.6484     3.3395    -0.3027 H       
  43 H43            7.9039     0.1709     1.7755 H       
  44 H44            7.7159    -0.3733     0.0885 H       
  45 H45           -1.2145    -1.1242    -2.9879 H       
  46 H46           -2.0722    -0.4657     1.1285 H       
  47 H47           -3.5162    -3.4910    -2.6633 H       
  48 H48           -4.8179    -2.3133    -2.3689 H       
  49 H49           -3.6473    -2.0366    -3.6810 H       
  50 H50            9.8653     1.2058     0.6103 H       
  51 H51            9.5509     1.8002    -1.0377 H       
  52 H52            9.1511     5.1225     1.1675 H       
  53 H53            7.8656     2.4322     5.0907 H       
  54 H54            7.6699     1.4840     2.8275 H       
  55 H55            6.1222     0.1728     3.3885 H       
  56 H56            4.3644     0.0528     2.8432 H       
  57 H57            4.8625    -2.1703     1.7270 H       
  58 H58            6.6203    -2.0503     2.2723 H       
  59 H59           -0.4437     3.1914     1.8083 H       
  60 H60           -0.6841     3.9592     0.2206 H       
  61 H61           -2.0887     3.5651     1.2404 H       
  62 H62           10.4738     4.0158    -0.4147 H       
  63 H63           10.7882     3.4214     1.2333 H       
  64 H64           11.6715     2.7266    -0.1470 H       
@<TRIPOS>BOND
   1    1    2 ar
   2    1    6 ar
   3    1   24 1
   4    2    3 ar
   5    2   15 1
   6    3    4 ar
   7    3   37 1
   8    4    5 ar
   9    4   38 1
  10    5    6 ar
  11    5    9 1
  12    6   39 1
  13    7    8 1
  14    7   10 1
  15    7   40 1
  16    7   41 1
  17    8    9 2
  18    8   13 1
  19    9   42 1
  20   10   11 1
  21   10   31 1
  22   10   32 1
  23   11   12 1
  24   11   43 1
  25   11   44 1
  26   12   13 1
  27   12   21 1
  28   13   14 2
  29   14   22 1
  30   15   16 1
  31   15   19 1
  32   16   17 2
  33   16   45 1
  34   17   18 1
  35   17   20 1
  36   18   19 2
  37   19   46 1
  38   20   47 1
  39   20   48 1
  40   20   49 1
  41   21   22 1
  42   21   23 1
  43   21   25 1
  44   23   26 ar
  45   23   28 ar
  46   24   33 1
  47   25   34 1
  48   25   50 1
  49   25   51 1
  50   26   35 ar
  51   26   52 1
  52   27   28 ar
  53   27   29 ar
  54   27   53 1
  55   28   54 1
  56   29   30 1
  57   29   35 ar
  58   31   32 1
  59   31   55 1
  60   31   56 1
  61   32   57 1
  62   32   58 1
  63   33   59 1
  64   33   60 1
  65   33   61 1
  66   34   62 1
  67   34   63 1
  68   34   64 1
  69   35   36 1

#	End of record

