#	Name: ASD02039172
#	Creating user name:	WinNT
#	Creation time:	15. 06. 2019 20:17

#	Modifying user name:	WinNT
#	Modification time:	15. 06. 2019 20:17

#	Program:	/corina/corina34_cracker 3.40 0067  02.08.2006

@<TRIPOS>MOLECULE
ASD02039172
  39   42    0    0    0
SMALL
NO_CHARGES


@<TRIPOS>ATOM
   1 N1            -0.0156     1.3021     0.0092 N.2     
   2 C2             0.0021    -0.0041     0.0020 C.2     
   3 N3             1.2970    -0.3863    -0.0124 N.2     
   4 C4             1.9921     0.7246    -0.0131 C.2     
   5 O5             1.1174     1.7349     0.0007 O.3     
   6 C6             3.4946     0.8408    -0.0264 C.3     
   7 O7             3.9570     0.8845    -1.3777 O.3     
   8 C8             5.2994     0.9895    -1.5678 C.ar    
   9 N9            -1.1043    -0.8429     0.0088 N.pl3   
  10 C10           -3.4687    -1.3889     0.0295 C.ar    
  11 C11           -3.9219    -1.9059     1.2288 C.ar    
  12 C12           -4.8564    -2.9242     1.2336 C.ar    
  13 C13           -5.3383    -3.4262     0.0378 C.ar    
  14 C14           -4.8844    -2.9083    -1.1622 C.ar    
  15 C15           -3.9498    -1.8901    -1.1657 C.ar    
  16 C16            6.1527     1.0490    -0.4670 C.ar    
  17 C17            7.5033     1.1544    -0.6353 C.ar    
  18 C18            8.0449     1.2043    -1.9174 C.ar    
  19 C19            7.1919     1.1449    -3.0356 C.ar    
  20 C20            5.8093     1.0308    -2.8481 C.ar    
  21 N21            9.3244     1.3062    -2.4025 N.pl3   
  22 N22            9.2837     1.3113    -3.8006 N.2     
  23 C23            8.0516     1.2184    -4.2125 C.2     
  24 Cl24          -6.5117    -4.7056     0.0430 Cl      
  25 C25           -2.4544    -0.2744     0.0250 C.3     
  26 H26            3.7929     1.7535     0.4895 H       
  27 H27            3.9302    -0.0211     0.4790 H       
  28 H28           -0.9833    -1.8053     0.0027 H       
  29 H29           -3.5454    -1.5143     2.1622 H       
  30 H30           -5.2101    -3.3283     2.1706 H       
  31 H31           -5.2600    -3.3000    -2.0960 H       
  32 H32           -3.5954    -1.4858    -2.1024 H       
  33 H33            5.7404     1.0116     0.5305 H       
  34 H34            8.1525     1.1995     0.2266 H       
  35 H35            5.1466     0.9841    -3.6996 H       
  36 H36           10.1281     1.3652    -1.8626 H       
  37 H37            7.7244     1.1992    -5.2416 H       
  38 H38           -2.5810     0.3357     0.9194 H       
  39 H39           -2.5987     0.3446    -0.8605 H       
@<TRIPOS>BOND
   1    1    2 2
   2    1    5 1
   3    2    3 1
   4    2    9 1
   5    3    4 2
   6    4    5 1
   7    4    6 1
   8    6    7 1
   9    6   26 1
  10    6   27 1
  11    7    8 1
  12    8   16 ar
  13    8   20 ar
  14    9   25 1
  15    9   28 1
  16   10   11 ar
  17   10   15 ar
  18   10   25 1
  19   11   12 ar
  20   11   29 1
  21   12   13 ar
  22   12   30 1
  23   13   14 ar
  24   13   24 1
  25   14   15 ar
  26   14   31 1
  27   15   32 1
  28   16   17 ar
  29   16   33 1
  30   17   18 ar
  31   17   34 1
  32   18   19 ar
  33   18   21 1
  34   19   20 ar
  35   19   23 1
  36   20   35 1
  37   21   22 1
  38   21   36 1
  39   22   23 2
  40   23   37 1
  41   25   38 1
  42   25   39 1

#	End of record

