#	Name: ASD01881607
#	Creating user name:	WinNT
#	Creation time:	15. 06. 2019 19:43

#	Modifying user name:	WinNT
#	Modification time:	15. 06. 2019 19:43

#	Program:	/corina/corina34_cracker 3.40 0067  02.08.2006

@<TRIPOS>MOLECULE
ASD01881607
  52   55    0    0    0
SMALL
NO_CHARGES


@<TRIPOS>ATOM
   1 C1            -0.0159     1.3193     0.0093 C.ar    
   2 N2             0.0021    -0.0041     0.0020 N.ar    
   3 C3             1.1453    -0.6669    -0.0125 C.ar    
   4 C4             2.3444     0.0499    -0.0201 C.ar    
   5 C5             2.2814     1.4455    -0.0121 C.ar    
   6 N6             1.0982     2.0339     0.0025 N.ar    
   7 O7            -1.2087     1.9609     0.0184 O.3     
   8 C8             3.6511    -0.6530    -0.0360 C.ar    
   9 C9             4.8380     0.0774    -0.0434 C.ar    
  10 C10            6.0504    -0.5814    -0.0582 C.ar    
  11 C11            6.0891    -1.9643    -0.0660 C.ar    
  12 C12            4.9144    -2.6941    -0.0591 C.ar    
  13 C13            3.6960    -2.0455    -0.0377 C.ar    
  14 C14            7.3347     0.2070    -0.0663 C.3     
  15 O15            7.7534     0.4493     1.2784 O.3     
  16 N16           12.3540     3.2622     2.2406 N.pl3   
  17 N17           12.2813     3.2032     3.6402 N.2     
  18 N18           11.2271     2.5529     3.9871 N.2     
  19 C19           10.5469     2.1470     2.8964 C.ar    
  20 C20           11.2513     2.5907     1.7638 C.ar    
  21 C21            9.3608     1.4203     2.7234 C.ar    
  22 C22            8.9040     1.1537     1.4493 C.ar    
  23 C23            9.6129     1.6004     0.3367 C.ar    
  24 C24           10.7714     2.3087     0.4899 C.ar    
  25 C25           13.3952     3.9154     1.4435 C.3     
  26 C26           14.5172     2.9166     1.1532 C.3     
  27 C27           13.9518     1.7260     0.3762 C.3     
  28 C28           15.6046     3.5988     0.3207 C.3     
  29 C29           15.1173     2.4261     2.4724 C.3     
  30 Br30           8.3918     0.8097     4.2281 Br      
  31 H31            1.1524    -1.7469    -0.0180 H       
  32 H32            3.1864     2.0348    -0.0176 H       
  33 H33           -1.5509     2.1424     0.9044 H       
  34 H34            4.8089     1.1570    -0.0380 H       
  35 H35            7.0402    -2.4758    -0.0779 H       
  36 H36            4.9503    -3.7735    -0.0660 H       
  37 H37            2.7793    -2.6163    -0.0275 H       
  38 H38            8.1051    -0.3588    -0.5903 H       
  39 H39            7.1740     1.1581    -0.5738 H       
  40 H40            9.2443     1.3845    -0.6552 H       
  41 H41           11.3139     2.6504    -0.3792 H       
  42 H42           12.9677     4.2649     0.5037 H       
  43 H43           13.7980     4.7636     1.9970 H       
  44 H44           13.5243     2.0754    -0.5636 H       
  45 H45           14.7511     1.0144     0.1695 H       
  46 H46           13.1771     1.2400     0.9693 H       
  47 H47           16.0075     4.4470     0.8742 H       
  48 H48           16.4040     2.8872     0.1139 H       
  49 H49           15.1771     3.9482    -0.6191 H       
  50 H50           14.3427     1.9401     3.0655 H       
  51 H51           15.9167     1.7145     2.2656 H       
  52 H52           15.5202     3.2743     3.0259 H       
@<TRIPOS>BOND
   1    1    2 ar
   2    1    6 ar
   3    1    7 1
   4    2    3 ar
   5    3    4 ar
   6    3   31 1
   7    4    5 ar
   8    4    8 1
   9    5    6 ar
  10    5   32 1
  11    7   33 1
  12    8    9 ar
  13    8   13 ar
  14    9   10 ar
  15    9   34 1
  16   10   11 ar
  17   10   14 1
  18   11   12 ar
  19   11   35 1
  20   12   13 ar
  21   12   36 1
  22   13   37 1
  23   14   15 1
  24   14   38 1
  25   14   39 1
  26   15   22 1
  27   16   17 1
  28   16   20 1
  29   16   25 1
  30   17   18 2
  31   18   19 1
  32   19   20 ar
  33   19   21 ar
  34   20   24 ar
  35   21   22 ar
  36   21   30 1
  37   22   23 ar
  38   23   24 ar
  39   23   40 1
  40   24   41 1
  41   25   26 1
  42   25   42 1
  43   25   43 1
  44   26   27 1
  45   26   28 1
  46   26   29 1
  47   27   44 1
  48   27   45 1
  49   27   46 1
  50   28   47 1
  51   28   48 1
  52   28   49 1
  53   29   50 1
  54   29   51 1
  55   29   52 1

#	End of record

