#	Name: ASD01916165
#	Creating user name:	WinNT
#	Creation time:	15. 06. 2019 20:06

#	Modifying user name:	WinNT
#	Modification time:	15. 06. 2019 20:06

#	Program:	/corina/corina34_cracker 3.40 0067  02.08.2006

@<TRIPOS>MOLECULE
ASD01916165
  43   45    0    0    0
SMALL
NO_CHARGES


@<TRIPOS>ATOM
   1 C1            -0.4104     1.7402     0.1048 C.ar    
   2 C2            -0.5431     0.3900     0.3734 C.ar    
   3 N3             0.5000    -0.3400     0.7072 N.ar    
   4 C4             1.7179     0.1815     0.8002 C.ar    
   5 C5             1.9312     1.5324     0.5450 C.ar    
   6 C6             0.8475     2.3312     0.1895 C.ar    
   7 C7            -1.9022    -0.2548     0.2832 C.3     
   8 O8             1.0132     3.6536    -0.0680 O.3     
   9 C9             2.2649     4.1722     0.0379 C.ar    
  10 C10            3.1953     3.9761    -0.9724 C.ar    
  11 N11            4.4111     4.4763    -0.8750 N.ar    
  12 C12            4.7921     5.1774     0.1744 C.ar    
  13 C13            3.9200     5.4164     1.2236 C.ar    
  14 C14            2.6292     4.9121     1.1583 C.ar    
  15 C15            2.8594    -0.6829     1.1796 C.2     
  16 N16            2.6596    -1.9923     1.4286 N.am    
  17 O17            3.9760    -0.2115     1.2663 O.2     
  18 C18            3.7459    -2.8269     1.6821 C.ar    
  19 C19            3.5450    -4.1953     1.8228 C.ar    
  20 C20            4.6329    -5.0129     2.0745 C.ar    
  21 C21            5.8889    -4.4311     2.1771 C.ar    
  22 C22            6.0152    -3.0640     2.0262 C.ar    
  23 N23            4.9608    -2.3103     1.7815 N.ar    
  24 C24           -1.8388    -1.4465    -0.6743 C.3     
  25 F25            4.3181     6.1406     2.2924 F       
  26 C26            7.1020    -5.2822     2.4507 C.3     
  27 H27           -1.2725     2.3289    -0.1722 H       
  28 H28            2.9221     1.9551     0.6218 H       
  29 H29           -2.2076    -0.5987     1.2715 H       
  30 H30           -2.6251     0.4716    -0.0882 H       
  31 H31            2.9206     3.4069    -1.8481 H       
  32 H32            5.7972     5.5702     0.2168 H       
  33 H33            1.9272     5.0827     1.9611 H       
  34 H34            1.7594    -2.3536     1.4313 H       
  35 H35            2.5534    -4.6146     1.7372 H       
  36 H36            4.5073    -6.0795     2.1888 H       
  37 H37            6.9905    -2.6069     2.1052 H       
  38 H38           -1.5334    -1.1027    -1.6625 H       
  39 H39           -1.1159    -2.1729    -0.3029 H       
  40 H40           -2.8218    -1.9129    -0.7396 H       
  41 H41            7.5349    -5.6122     1.5064 H       
  42 H42            7.8381    -4.6985     3.0035 H       
  43 H43            6.8106    -6.1515     3.0403 H       
@<TRIPOS>BOND
   1    1    2 ar
   2    1    6 ar
   3    1   27 1
   4    2    3 ar
   5    2    7 1
   6    3    4 ar
   7    4    5 ar
   8    4   15 1
   9    5    6 ar
  10    5   28 1
  11    6    8 1
  12    7   24 1
  13    7   29 1
  14    7   30 1
  15    8    9 1
  16    9   10 ar
  17    9   14 ar
  18   10   11 ar
  19   10   31 1
  20   11   12 ar
  21   12   13 ar
  22   12   32 1
  23   13   14 ar
  24   13   25 1
  25   14   33 1
  26   15   16 am
  27   15   17 2
  28   16   18 1
  29   16   34 1
  30   18   19 ar
  31   18   23 ar
  32   19   20 ar
  33   19   35 1
  34   20   21 ar
  35   20   36 1
  36   21   22 ar
  37   21   26 1
  38   22   23 ar
  39   22   37 1
  40   24   38 1
  41   24   39 1
  42   24   40 1
  43   26   41 1
  44   26   42 1
  45   26   43 1

#	End of record

