#	Name: ASD03540181
#	Creating user name:	WinNT
#	Creation time:	15. 06. 2019 20:42

#	Modifying user name:	WinNT
#	Modification time:	15. 06. 2019 20:42

#	Program:	/corina/corina34_cracker 3.40 0067  02.08.2006

@<TRIPOS>MOLECULE
ASD03540181
  53   56    0    0    0
SMALL
NO_CHARGES


@<TRIPOS>ATOM
   1 C1             2.7447    -8.6900    -2.5604 C.2     
   2 C2             2.0554    -7.5577    -1.9085 C.ar    
   3 C3             0.6702    -7.5859    -1.7350 C.ar    
   4 C4             0.0330    -6.5253    -1.1250 C.ar    
   5 C5             0.7632    -5.4351    -0.6860 C.ar    
   6 C6             2.1361    -5.4004    -0.8552 C.ar    
   7 C7             2.7868    -6.4570    -1.4580 C.ar    
   8 O8             2.1063    -9.6485    -2.9468 O.2     
   9 O9             4.0805    -8.6572    -2.7313 O.3     
  10 C10            0.0601    -4.2800    -0.0210 C.3     
  11 C11           -2.3001    -4.3355     0.5394 C.2     
  12 N12           -3.3611    -4.7612     1.2393 N.am    
  13 C13           -3.2286    -5.6919     2.2534 C.2     
  14 C14           -1.9648    -6.1938     2.5485 C.2     
  15 C15           -0.8252    -5.6921     1.7463 C.2     
  16 N16           -1.0579    -4.7846     0.7800 N.am    
  17 C17           -1.9728    -7.1210     3.5891 C.2     
  18 C18           -3.2050    -7.3556     4.1125 C.2     
  19 S19           -4.4057    -6.3851     3.2790 S.3     
  20 O20            0.3038    -6.0936     1.9581 O.2     
  21 O21           -2.4689    -3.5195    -0.3459 O.2     
  22 C22            1.0437    -3.5383     0.8864 C.3     
  23 C23           -3.4784    -8.2482     5.1703 C.2     
  24 O24           -2.5745    -8.8768     5.6835 O.2     
  25 C25           -4.8918    -8.4218     5.6636 C.3     
  26 C26           -4.9114    -9.4231     6.7896 C.ar    
  27 C27           -4.7536    -8.9975     8.0946 C.ar    
  28 C28           -4.7717    -9.9197     9.1306 C.ar    
  29 C29           -4.9485   -11.2677     8.8534 C.ar    
  30 C30           -5.1059   -11.6881     7.5471 C.ar    
  31 C31           -5.0930   -10.7661     6.5165 C.ar    
  32 O32           -4.6162    -9.5037    10.4150 O.3     
  33 C33           -4.6456   -10.5086    11.4305 C.3     
  34 H34            0.0990    -8.4359    -2.0778 H       
  35 H35           -1.0384    -6.5458    -0.9901 H       
  36 H36            2.7000    -4.5461    -0.5109 H       
  37 H37            3.8590    -6.4308    -1.5851 H       
  38 H38            4.4868    -9.4212    -3.1629 H       
  39 H39           -0.3174    -3.5974    -0.7824 H       
  40 H40           -4.2402    -4.4087     1.0303 H       
  41 H41           -1.0790    -7.6101     3.9475 H       
  42 H42            0.5351    -2.7028     1.3674 H       
  43 H43            1.4212    -4.2208     1.6478 H       
  44 H44            1.8755    -3.1628     0.2904 H       
  45 H45           -5.2717    -7.4649     6.0216 H       
  46 H46           -5.5199    -8.7799     4.8479 H       
  47 H47           -4.6158    -7.9478     8.3078 H       
  48 H48           -4.9627   -11.9877     9.6582 H       
  49 H49           -5.2432   -12.7373     7.3308 H       
  50 H50           -5.2210   -11.0962     5.4962 H       
  51 H51           -4.5103   -10.0428    12.4066 H       
  52 H52           -5.6056   -11.0242    11.4039 H       
  53 H53           -3.8433   -11.2254    11.2557 H       
@<TRIPOS>BOND
   1    1    2 1
   2    1    8 2
   3    1    9 1
   4    2    3 ar
   5    2    7 ar
   6    3    4 ar
   7    3   34 1
   8    4    5 ar
   9    4   35 1
  10    5    6 ar
  11    5   10 1
  12    6    7 ar
  13    6   36 1
  14    7   37 1
  15    9   38 1
  16   10   16 1
  17   10   22 1
  18   10   39 1
  19   11   12 am
  20   11   16 am
  21   11   21 2
  22   12   13 1
  23   12   40 1
  24   13   14 2
  25   13   19 1
  26   14   15 1
  27   14   17 1
  28   15   16 am
  29   15   20 2
  30   17   18 2
  31   17   41 1
  32   18   19 1
  33   18   23 1
  34   22   42 1
  35   22   43 1
  36   22   44 1
  37   23   24 2
  38   23   25 1
  39   25   26 1
  40   25   45 1
  41   25   46 1
  42   26   27 ar
  43   26   31 ar
  44   27   28 ar
  45   27   47 1
  46   28   29 ar
  47   28   32 1
  48   29   30 ar
  49   29   48 1
  50   30   31 ar
  51   30   49 1
  52   31   50 1
  53   32   33 1
  54   33   51 1
  55   33   52 1
  56   33   53 1

#	End of record

