#	Name: ASD00731059
#	Creating user name:	WinNT
#	Creation time:	15. 06. 2019 18:37

#	Modifying user name:	WinNT
#	Modification time:	15. 06. 2019 18:37

#	Program:	/corina/corina34_cracker 3.40 0067  02.08.2006

@<TRIPOS>MOLECULE
ASD00731059
 220  220    0    0    0
SMALL
NO_CHARGES


@<TRIPOS>ATOM
   1 C1            -0.8625     8.4568    -2.9677 C.2     
   2 O2            -0.3485     7.3794    -2.7535 O.2     
   3 N3             1.4092     9.2598    -3.2563 N.am    
   4 C4            -0.0014     9.6546    -3.2755 C.3     
   5 C5            -0.3601    10.1984    -4.6599 C.3     
   6 C6            -4.4096     7.6164    -3.2420 C.2     
   7 O7            -4.6605     8.6331    -3.8538 O.2     
   8 N8            -2.2041     8.5815    -2.9361 N.am    
   9 C9            -3.0415     7.4157    -2.6428 C.3     
  10 C10           -3.1682     7.2470    -1.1274 C.3     
  11 O11           -3.8713     8.3646    -0.5809 O.3     
  12 C12           -7.6922     6.0411    -2.9174 C.2     
  13 O13           -7.3171     5.2075    -2.1203 O.2     
  14 N14           -5.3543     6.6661    -3.0981 N.am    
  15 C15           -6.6843     6.8612    -3.6806 C.3     
  16 C16           -6.6698     6.4177    -5.1449 C.3     
  17 C17           -5.6617     7.2647    -5.9243 C.3     
  18 O18           -6.2955     5.0408    -5.2219 O.3     
  19 C19          -11.2701     5.3540    -3.2173 C.2     
  20 O20          -11.3956     6.0491    -4.2031 O.2     
  21 N21           -9.0106     6.2339    -3.1206 N.am    
  22 C22           -9.9894     5.3955    -2.4240 C.3     
  23 C23          -10.2670     5.9802    -1.0377 C.3     
  24 C24           -8.9630     6.0416    -0.2397 C.3     
  25 O25          -10.8039     7.2973    -1.1749 O.3     
  26 C26          -14.6531     4.1072    -2.6141 C.2     
  27 O27          -14.3859     3.7672    -1.4811 O.2     
  28 N28          -12.2759     4.5442    -2.8312 N.am    
  29 C29          -13.5600     4.5844    -3.5353 C.3     
  30 C30          -13.4962     3.6757    -4.7646 C.3     
  31 O31          -13.3368     2.3187    -4.3461 O.3     
  32 C32          -18.1354     3.0539    -2.9710 C.2     
  33 O33          -18.0702     3.0558    -4.1821 O.2     
  34 N34          -15.9277     4.0585    -3.0495 N.am    
  35 C35          -16.9904     3.5946    -2.1540 C.3     
  36 C36          -17.4821     4.7634    -1.2978 C.3     
  37 C37          -16.3531     5.2318    -0.3775 C.3     
  38 C38          -16.8374     6.3830     0.4658 C.2     
  39 O39          -17.9694     6.7873     0.3434 O.2     
  40 O40          -16.0112     6.9592     1.3530 O.3     
  41 C41          -21.6204     2.1395    -2.3535 C.2     
  42 O42          -21.5779     2.4030    -1.1704 O.2     
  43 N43          -19.2319     2.5682    -2.3560 N.am    
  44 C44          -20.3450     2.0426    -3.1502 C.3     
  45 C45          -20.0736     0.5786    -3.5023 C.3     
  46 C46          -18.7817     0.4808    -4.3162 C.3     
  47 O47          -19.9385    -0.1831    -2.3008 O.3     
  48 C48          -25.1303     1.2497    -2.7800 C.2     
  49 O49          -24.9910     0.7569    -3.8793 O.2     
  50 N50          -22.8085     1.9334    -2.9556 N.am    
  51 C51          -24.0528     2.1353    -2.2092 C.3     
  52 C52          -24.4831     3.5992    -2.3217 C.3     
  53 C53          -25.7427     3.8264    -1.4834 C.3     
  54 C54          -25.4019     3.6750     0.0005 C.3     
  55 C55          -24.7776     3.9332    -3.7855 C.3     
  56 C56          -28.6000     0.4097    -1.9936 C.2     
  57 O57          -28.7081     1.3378    -1.2204 O.2     
  58 N58          -26.2487     1.0054    -2.0687 N.am    
  59 C59          -27.2546     0.0726    -2.5829 C.3     
  60 C60          -26.8710    -1.3565    -2.1937 C.3     
  61 C61          -25.5661    -1.7426    -2.8929 C.3     
  62 C62          -25.1882    -3.1502    -2.5096 C.2     
  63 O63          -25.8933    -3.7823    -1.7518 O.2     
  64 N64          -24.0668    -3.7067    -3.0089 N.am    
  65 C65          -31.8624    -1.2220    -1.7542 C.2     
  66 O66          -31.4331    -2.2690    -2.1904 O.2     
  67 N67          -29.6833    -0.3201    -2.3259 N.am    
  68 C68          -30.9912     0.0076    -1.7531 C.3     
  69 C69          -31.6545     1.1033    -2.5901 C.3     
  70 C70          -30.8461     2.3711    -2.4893 C.ar    
  71 C71          -29.8301     2.6157    -3.3947 C.ar    
  72 C72          -29.0873     3.7769    -3.3041 C.ar    
  73 C73          -29.3618     4.6983    -2.3039 C.ar    
  74 O74          -28.6328     5.8416    -2.2130 O.3     
  75 C75          -30.3820     4.4508    -1.3969 C.ar    
  76 C76          -31.1253     3.2904    -1.4950 C.ar    
  77 C77          -34.6428    -2.4883    -2.6108 C.2     
  78 O78          -34.4389    -1.6697    -3.4759 O.2     
  79 N79          -33.1187    -1.1582    -1.2703 N.am    
  80 C80          -33.9657    -2.3536    -1.2713 C.3     
  81 C81          -35.0251    -2.2289    -0.1745 C.3     
  82 C82          -34.3426    -2.2175     1.1948 C.3     
  83 C83          -35.4021    -2.0929     2.2916 C.3     
  84 N84          -34.7486    -2.0820     3.6028 N.pl3   
  85 C85          -35.5042    -1.9771     4.7466 C.2     
  86 N86          -34.9228    -1.9674     5.9131 N.2     
  87 N87          -36.8730    -1.8824     4.6599 N.pl3   
  88 O88          -35.4726    -3.5176    -2.8429 O.3     
  89 C89            2.3625    10.1777    -3.0005 C.2     
  90 O90            2.0524    11.3304    -2.7862 O.2     
  91 C91           20.1968    15.4346    -0.6574 C.3     
  92 C92           18.7235    15.8469    -0.6774 C.3     
  93 C93           17.8563    14.6256    -0.9893 C.3     
  94 C94           16.3831    15.0379    -1.0093 C.3     
  95 C95           15.5159    13.8166    -1.3212 C.3     
  96 C96           14.0426    14.2289    -1.3412 C.3     
  97 C97           13.1754    13.0076    -1.6531 C.3     
  98 C98           11.7022    13.4199    -1.6732 C.3     
  99 C99           10.8350    12.1985    -1.9851 C.3     
 100 C100           9.3617    12.6109    -2.0051 C.3     
 101 C101           8.4945    11.3895    -2.3170 C.3     
 102 C102           7.0212    11.8019    -2.3370 C.3     
 103 C103           6.1540    10.5805    -2.6489 C.3     
 104 C104           4.6808    10.9929    -2.6689 C.3     
 105 C105           3.8136     9.7715    -2.9808 C.3     
 106 H106           1.6572     8.3379    -3.4277 H       
 107 H107          -0.1727    10.4274    -2.5261 H       
 108 H108          -1.4097    10.4921    -4.6742 H       
 109 H109           0.2627    11.0648    -4.8825 H       
 110 H110          -0.1888     9.4256    -5.4093 H       
 111 H111          -2.6153     9.4432    -3.1074 H       
 112 H112          -2.5847     6.5234    -3.0708 H       
 113 H113          -3.7162     6.3306    -0.9084 H       
 114 H114          -2.1742     7.1908    -0.6837 H       
 115 H115          -3.9887     8.3246     0.3781 H       
 116 H116          -5.1537     5.8529    -2.6088 H       
 117 H117          -6.9552     7.9154    -3.6229 H       
 118 H118          -7.6631     6.5488    -5.5740 H       
 119 H119          -4.6543     7.0500    -5.5678 H       
 120 H120          -5.7302     7.0258    -6.9856 H       
 121 H121          -5.8826     8.3215    -5.7747 H       
 122 H122          -6.8916     4.4441    -4.7490 H       
 123 H123          -9.3113     6.9278    -3.7280 H       
 124 H124          -9.5937     4.3853    -2.3197 H       
 125 H125         -10.9841     5.3482    -0.5138 H       
 126 H126          -8.2868     6.7600    -0.7033 H       
 127 H127          -9.1772     6.3519     0.7830 H       
 128 H128          -8.4960     5.0568    -0.2303 H       
 129 H129         -11.6329     7.3343    -1.6714 H       
 130 H130         -12.1497     3.9349    -2.0871 H       
 131 H131         -13.7702     5.6067    -3.8496 H       
 132 H132         -14.4187     3.7734    -5.3369 H       
 133 H133         -12.6499     3.9657    -5.3872 H       
 134 H134         -13.2887     1.6853    -5.0752 H       
 135 H135         -16.1415     4.3304    -3.9557 H       
 136 H136         -16.6025     2.8080    -1.5068 H       
 137 H137         -17.7874     5.5851    -1.9455 H       
 138 H138         -18.3313     4.4406    -0.6956 H       
 139 H139         -16.0477     4.4101     0.2702 H       
 140 H140         -15.5038     5.5547    -0.9797 H       
 141 H141         -16.3669     7.6941     1.8712 H       
 142 H142         -19.2840     2.5667    -1.3874 H       
 143 H143         -20.4440     2.6243    -4.0667 H       
 144 H144         -20.9037     0.1863    -4.0898 H       
 145 H145         -17.9508     0.8687    -3.7269 H       
 146 H146         -18.5909    -0.5617    -4.5710 H       
 147 H147         -18.8831     1.0656    -5.2304 H       
 148 H148         -20.7220    -0.1664    -1.7343 H       
 149 H149         -22.8396     1.6513    -3.8832 H       
 150 H150         -23.8927     1.8832    -1.1609 H       
 151 H151         -23.6825     4.2424    -1.9563 H       
 152 H152         -26.1256     4.8302    -1.6676 H       
 153 H153         -26.4999     3.0924    -1.7590 H       
 154 H154         -24.9726     2.6885     0.1758 H       
 155 H155         -24.6816     4.4409     0.2879 H       
 156 H156         -26.3086     3.7875     0.5949 H       
 157 H157         -25.5267     3.2422    -4.1722 H       
 158 H158         -25.1536     4.9538    -3.8567 H       
 159 H159         -23.8624     3.8415    -4.3703 H       
 160 H160         -26.3877     1.4472    -1.2164 H       
 161 H161         -27.3031     0.1528    -3.6688 H       
 162 H162         -26.7357    -1.4151    -1.1137 H       
 163 H163         -27.6628    -2.0409    -2.4983 H       
 164 H164         -25.7014    -1.6841    -3.9729 H       
 165 H165         -24.7743    -1.0582    -2.5882 H       
 166 H166         -23.5029    -3.2011    -3.6149 H       
 167 H167         -23.8236    -4.6127    -2.7621 H       
 168 H168         -29.5969    -1.0624    -2.9444 H       
 169 H169         -30.8617     0.3603    -0.7299 H       
 170 H170         -31.7034     0.7855    -3.6316 H       
 171 H171         -32.6627     1.2847    -2.2178 H       
 172 H172         -29.6169     1.8982    -4.1732 H       
 173 H173         -28.2934     3.9672    -4.0112 H       
 174 H174         -28.9955     6.5807    -2.7201 H       
 175 H175         -30.5973     5.1663    -0.6172 H       
 176 H176         -31.9224     3.0993    -0.7918 H       
 177 H177         -33.4621    -0.3208    -0.9214 H       
 178 H178         -33.3513    -3.2343    -1.0846 H       
 179 H179         -35.5818    -1.3017    -0.3107 H       
 180 H180         -35.7094    -3.0754    -0.2324 H       
 181 H181         -33.7860    -3.1447     1.3311 H       
 182 H182         -33.6584    -1.3710     1.2527 H       
 183 H183         -35.9587    -1.1657     2.1554 H       
 184 H184         -36.0863    -2.9393     2.2337 H       
 185 H185         -33.7828    -2.1487     3.6639 H       
 186 H186         -35.4559    -1.8934     6.7201 H       
 187 H187         -37.3057    -1.8897     3.7918 H       
 188 H188         -37.4061    -1.8084     5.4669 H       
 189 H189         -35.8835    -3.5617    -3.7171 H       
 190 H190          20.3510    14.6744     0.1084 H       
 191 H191          20.4744    15.0309    -1.6311 H       
 192 H192          20.8146    16.3046    -0.4352 H       
 193 H193          18.4459    16.2505     0.2963 H       
 194 H194          18.5694    16.6071    -1.4432 H       
 195 H195          18.1339    14.2219    -1.9630 H       
 196 H196          18.0105    13.8653    -0.2235 H       
 197 H197          16.1055    15.4415    -0.0356 H       
 198 H198          16.2289    15.7981    -1.7751 H       
 199 H199          15.7935    13.4129    -2.2950 H       
 200 H200          15.6700    13.0563    -0.5554 H       
 201 H201          13.7650    14.6325    -0.3675 H       
 202 H202          13.8884    14.9891    -2.1070 H       
 203 H203          13.4530    12.6039    -2.6269 H       
 204 H204          13.3296    12.2473    -0.8874 H       
 205 H205          11.4246    13.8235    -0.6994 H       
 206 H206          11.5480    14.1801    -2.4389 H       
 207 H207          11.1126    11.7949    -2.9588 H       
 208 H208          10.9891    11.4383    -1.2193 H       
 209 H209           9.0841    13.0145    -1.0314 H       
 210 H210           9.2075    13.3711    -2.7709 H       
 211 H211           8.7721    10.9859    -3.2907 H       
 212 H212           8.6487    10.6293    -1.5512 H       
 213 H213           6.7436    12.2055    -1.3633 H       
 214 H214           6.8671    12.5621    -3.1028 H       
 215 H215           6.4316    10.1769    -3.6226 H       
 216 H216           6.3082     9.8203    -1.8831 H       
 217 H217           4.4032    11.3965    -1.6952 H       
 218 H218           4.5266    11.7531    -3.4347 H       
 219 H219           3.9678     9.0113    -2.2150 H       
 220 H220           4.0912     9.3679    -3.9545 H       
@<TRIPOS>BOND
   1    1    2 2
   2    1    4 1
   3    1    8 am
   4    3   89 am
   5    3    4 1
   6    3  106 1
   7    4    5 1
   8    4  107 1
   9    5  108 1
  10    5  109 1
  11    5  110 1
  12    6    7 2
  13    6    9 1
  14    6   14 am
  15    8    9 1
  16    8  111 1
  17    9   10 1
  18    9  112 1
  19   10   11 1
  20   10  113 1
  21   10  114 1
  22   11  115 1
  23   12   13 2
  24   12   15 1
  25   12   21 am
  26   14   15 1
  27   14  116 1
  28   15   16 1
  29   15  117 1
  30   16   17 1
  31   16   18 1
  32   16  118 1
  33   17  119 1
  34   17  120 1
  35   17  121 1
  36   18  122 1
  37   19   20 2
  38   19   22 1
  39   19   28 am
  40   21   22 1
  41   21  123 1
  42   22   23 1
  43   22  124 1
  44   23   24 1
  45   23   25 1
  46   23  125 1
  47   24  126 1
  48   24  127 1
  49   24  128 1
  50   25  129 1
  51   26   27 2
  52   26   29 1
  53   26   34 am
  54   28   29 1
  55   28  130 1
  56   29   30 1
  57   29  131 1
  58   30   31 1
  59   30  132 1
  60   30  133 1
  61   31  134 1
  62   32   33 2
  63   32   35 1
  64   32   43 am
  65   34   35 1
  66   34  135 1
  67   35   36 1
  68   35  136 1
  69   36   37 1
  70   36  137 1
  71   36  138 1
  72   37   38 1
  73   37  139 1
  74   37  140 1
  75   38   39 2
  76   38   40 1
  77   40  141 1
  78   41   42 2
  79   41   44 1
  80   41   50 am
  81   43   44 1
  82   43  142 1
  83   44   45 1
  84   44  143 1
  85   45   46 1
  86   45   47 1
  87   45  144 1
  88   46  145 1
  89   46  146 1
  90   46  147 1
  91   47  148 1
  92   48   49 2
  93   48   51 1
  94   48   58 am
  95   50   51 1
  96   50  149 1
  97   51   52 1
  98   51  150 1
  99   52   53 1
 100   52   55 1
 101   52  151 1
 102   53   54 1
 103   53  152 1
 104   53  153 1
 105   54  154 1
 106   54  155 1
 107   54  156 1
 108   55  157 1
 109   55  158 1
 110   55  159 1
 111   56   57 2
 112   56   59 1
 113   56   67 am
 114   58   59 1
 115   58  160 1
 116   59   60 1
 117   59  161 1
 118   60   61 1
 119   60  162 1
 120   60  163 1
 121   61   62 1
 122   61  164 1
 123   61  165 1
 124   62   63 2
 125   62   64 am
 126   64  166 1
 127   64  167 1
 128   65   66 2
 129   65   68 1
 130   65   79 am
 131   67   68 1
 132   67  168 1
 133   68   69 1
 134   68  169 1
 135   69   70 1
 136   69  170 1
 137   69  171 1
 138   70   71 ar
 139   70   76 ar
 140   71   72 ar
 141   71  172 1
 142   72   73 ar
 143   72  173 1
 144   73   74 1
 145   73   75 ar
 146   74  174 1
 147   75   76 ar
 148   75  175 1
 149   76  176 1
 150   77   78 2
 151   77   80 1
 152   77   88 1
 153   79   80 1
 154   79  177 1
 155   80   81 1
 156   80  178 1
 157   81   82 1
 158   81  179 1
 159   81  180 1
 160   82   83 1
 161   82  181 1
 162   82  182 1
 163   83   84 1
 164   83  183 1
 165   83  184 1
 166   84   85 1
 167   84  185 1
 168   85   86 2
 169   85   87 1
 170   86  186 1
 171   87  187 1
 172   87  188 1
 173   88  189 1
 174   89   90 2
 175   89  105 1
 176   91   92 1
 177   91  190 1
 178   91  191 1
 179   91  192 1
 180   92   93 1
 181   92  193 1
 182   92  194 1
 183   93   94 1
 184   93  195 1
 185   93  196 1
 186   94   95 1
 187   94  197 1
 188   94  198 1
 189   95   96 1
 190   95  199 1
 191   95  200 1
 192   96   97 1
 193   96  201 1
 194   96  202 1
 195   97   98 1
 196   97  203 1
 197   97  204 1
 198   98   99 1
 199   98  205 1
 200   98  206 1
 201   99  100 1
 202   99  207 1
 203   99  208 1
 204  100  101 1
 205  100  209 1
 206  100  210 1
 207  101  102 1
 208  101  211 1
 209  101  212 1
 210  102  103 1
 211  102  213 1
 212  102  214 1
 213  103  104 1
 214  103  215 1
 215  103  216 1
 216  104  105 1
 217  104  217 1
 218  104  218 1
 219  105  219 1
 220  105  220 1

#	End of record

