#	Name: ASD01914647
#	Creating user name:	WinNT
#	Creation time:	15. 06. 2019 20:04

#	Modifying user name:	WinNT
#	Modification time:	15. 06. 2019 20:04

#	Program:	/corina/corina34_cracker 3.40 0067  02.08.2006

@<TRIPOS>MOLECULE
ASD01914647
  77   82    0    0    0
SMALL
NO_CHARGES


@<TRIPOS>ATOM
   1 C1            -0.0178     1.4625     0.0101 C.3     
   2 N2             0.0021    -0.0041     0.0020 N.am    
   3 C3             0.9552    -0.6716     0.9042 C.3     
   4 C4             2.3669    -0.3071     0.4476 C.3     
   5 C5             2.4873     1.1752     0.2081 C.ar    
   6 C6             3.7627     1.7207     0.1995 C.ar    
   7 C7             3.9469     3.0825    -0.0248 C.ar    
   8 C8             2.8364     3.9000    -0.2429 C.ar    
   9 C9             1.5747     3.3496    -0.2288 C.ar    
  10 C10            1.3955     1.9902    -0.0006 C.ar    
  11 C11           -0.8192    -0.7120    -0.7985 C.2     
  12 O12           -0.7821    -1.9265    -0.7854 O.2     
  13 O13           -1.6807    -0.0736    -1.6127 O.3     
  14 C14            5.3085     3.6585    -0.0325 C.2     
  15 N15            5.4811     4.9773    -0.2502 N.am    
  16 O16            6.2723     2.9426     0.1574 O.2     
  17 C17            6.8303     5.5481    -0.2579 C.3     
  18 C18            6.7463     7.0522    -0.5252 C.3     
  19 C19            8.1554     7.6483    -0.5332 C.3     
  20 C20            8.9853     6.9806    -1.6315 C.3     
  21 C21            9.0693     5.4765    -1.3642 C.3     
  22 C22            9.7325     5.2361    -0.0065 C.3     
  23 C23            8.9026     5.9037     1.0918 C.3     
  24 C24            7.4935     5.3077     1.0998 C.3     
  25 C25            8.8185     7.4078     0.8245 C.3     
  26 C26            7.6603     4.8805    -1.3562 C.3     
  27 N27            8.0749     9.0885    -0.7891 N.am    
  28 C28            9.2008     9.8276    -0.8412 C.2     
  29 O29           10.2825     9.2994    -0.6759 O.2     
  30 C30            9.1194    11.2842    -1.1001 C.ar    
  31 C31           10.2867    12.0427    -1.1528 C.ar    
  32 C32           10.1947    13.4039    -1.3963 C.ar    
  33 C33            8.9378    13.9594    -1.5787 C.ar    
  34 C34            7.8190    13.1447    -1.5129 C.ar    
  35 N35            7.9354    11.8545    -1.2853 N.ar    
  36 C36           -2.5349    -0.8999    -2.4469 C.3     
  37 C37           -3.3976    -1.7998    -1.5599 C.3     
  38 C38           -3.4384    -0.0042    -3.2966 C.3     
  39 C39           -1.6686    -1.7664    -3.3632 C.3     
  40 H40           -0.5462     1.8228    -0.8726 H       
  41 H41           -0.5292     1.8133     0.9065 H       
  42 H42            0.7979    -0.3280     1.9266 H       
  43 H43            0.8180    -1.7517     0.8520 H       
  44 H44            3.0803    -0.6052     1.2159 H       
  45 H45            2.5933    -0.8390    -0.4765 H       
  46 H46            4.6190     1.0846     0.3684 H       
  47 H47            2.9663     4.9572    -0.4211 H       
  48 H48            0.7147     3.9810    -0.3965 H       
  49 H49            4.7119     5.5486    -0.4018 H       
  50 H50            6.2738     7.2235    -1.4924 H       
  51 H51            6.1550     7.5278     0.2573 H       
  52 H52            8.5129     7.1519    -2.5988 H       
  53 H53            9.9892     7.4053    -1.6372 H       
  54 H54            9.6606     5.0009    -2.1467 H       
  55 H55            9.7924     4.1645     0.1839 H       
  56 H56           10.7364     5.6607    -0.0122 H       
  57 H57            9.3750     5.7324     2.0591 H       
  58 H58            6.9022     5.7833     1.8823 H       
  59 H59            7.5533     4.2361     1.2903 H       
  60 H60            9.8224     7.8325     0.8188 H       
  61 H61            8.2273     7.8835     1.6070 H       
  62 H62            7.7201     3.8089    -1.1658 H       
  63 H63            7.1878     5.0518    -2.3234 H       
  64 H64            7.2114     9.5101    -0.9211 H       
  65 H65           11.2498    11.5766    -1.0056 H       
  66 H66           11.0819    14.0179    -1.4425 H       
  67 H67            8.8316    15.0171    -1.7699 H       
  68 H68            6.8382    13.5742    -1.6546 H       
  69 H69           -4.0147    -1.1825    -0.9071 H       
  70 H70           -4.0388    -2.4201    -2.1861 H       
  71 H71           -2.7538    -2.4379    -0.9545 H       
  72 H72           -2.8238     0.6370    -3.9286 H       
  73 H73           -4.0796    -0.6245    -3.9229 H       
  74 H74           -4.0556     0.6132    -2.6438 H       
  75 H75           -1.0249    -2.4046    -2.7578 H       
  76 H76           -2.3098    -2.3867    -3.9894 H       
  77 H77           -1.0540    -1.1253    -3.9951 H       
@<TRIPOS>BOND
   1    1    2 1
   2    1   10 1
   3    1   40 1
   4    1   41 1
   5    2    3 1
   6    2   11 am
   7    3    4 1
   8    3   42 1
   9    3   43 1
  10    4    5 1
  11    4   44 1
  12    4   45 1
  13    5    6 ar
  14    5   10 ar
  15    6    7 ar
  16    6   46 1
  17    7    8 ar
  18    7   14 1
  19    8    9 ar
  20    8   47 1
  21    9   10 ar
  22    9   48 1
  23   11   12 2
  24   11   13 1
  25   13   36 1
  26   14   15 am
  27   14   16 2
  28   15   17 1
  29   15   49 1
  30   17   18 1
  31   17   24 1
  32   17   26 1
  33   18   19 1
  34   18   50 1
  35   18   51 1
  36   19   20 1
  37   19   25 1
  38   19   27 1
  39   20   21 1
  40   20   52 1
  41   20   53 1
  42   21   22 1
  43   21   26 1
  44   21   54 1
  45   22   23 1
  46   22   55 1
  47   22   56 1
  48   23   24 1
  49   23   25 1
  50   23   57 1
  51   24   58 1
  52   24   59 1
  53   25   60 1
  54   25   61 1
  55   26   62 1
  56   26   63 1
  57   27   28 am
  58   27   64 1
  59   28   29 2
  60   28   30 1
  61   30   31 ar
  62   30   35 ar
  63   31   32 ar
  64   31   65 1
  65   32   33 ar
  66   32   66 1
  67   33   34 ar
  68   33   67 1
  69   34   35 ar
  70   34   68 1
  71   36   37 1
  72   36   39 1
  73   36   38 1
  74   37   69 1
  75   37   70 1
  76   37   71 1
  77   38   72 1
  78   38   73 1
  79   38   74 1
  80   39   75 1
  81   39   76 1
  82   39   77 1

#	End of record

