#	Name: ASD03540460
#	Creating user name:	WinNT
#	Creation time:	15. 06. 2019 20:43

#	Modifying user name:	WinNT
#	Modification time:	15. 06. 2019 20:43

#	Program:	/corina/corina34_cracker 3.40 0067  02.08.2006

@<TRIPOS>MOLECULE
ASD03540460
  73   76    0    0    0
SMALL
NO_CHARGES


@<TRIPOS>ATOM
   1 N1            -0.0161     1.3396     0.0094 N.am    
   2 C2             0.0021    -0.0041     0.0020 C.2     
   3 N3             1.1390    -0.7172    -0.0122 N.am    
   4 C4             2.3459    -0.1106    -0.0200 C.2     
   5 C5             2.3857     1.3633    -0.0129 C.ar    
   6 C6             3.5871     2.0607    -0.0197 C.ar    
   7 C7             3.5659     3.4548    -0.0121 C.ar    
   8 C8             2.3437     4.1382     0.0023 C.ar    
   9 C9             1.1622     3.4519     0.0094 C.ar    
  10 C10            1.1637     2.0628     0.0020 C.ar    
  11 C11            4.8337     4.2115    -0.0186 C.2     
  12 O12            5.8952     3.6190    -0.0307 O.2     
  13 N13            4.8141     5.5591    -0.0113 N.am    
  14 C14            6.0721     6.3100    -0.0178 C.3     
  15 C15            5.7753     7.7874    -0.0074 C.ar    
  16 C16            5.6494     8.4577     1.1954 C.ar    
  17 C17            5.3773     9.8120     1.2076 C.ar    
  18 C18            5.2304    10.4996     0.0116 C.ar    
  19 C19            5.3572     9.8248    -1.1939 C.ar    
  20 C20            5.6349     8.4716    -1.2007 C.ar    
  21 O21            4.9624    11.8319     0.0210 O.3     
  22 C22            4.8240    12.4747    -1.2477 C.3     
  23 O23            3.3721    -0.7626    -0.0320 O.2     
  24 O24           -1.0576    -0.5997     0.0089 O.2     
  25 C25           -1.2992     2.0466     0.0193 C.3     
  26 C26            1.0697    -2.1806    -0.0189 C.3     
  27 C27            1.0327    -2.6752    -1.4420 C.ar    
  28 C28            2.2129    -2.9582    -2.1049 C.ar    
  29 C29            2.1825    -3.4116    -3.4090 C.ar    
  30 C30            0.9647    -3.5833    -4.0549 C.ar    
  31 C31           -0.2189    -3.2981    -3.3860 C.ar    
  32 C32           -0.1816    -2.8504    -2.0801 C.ar    
  33 N33            0.9305    -4.0413    -5.3739 N.pl3   
  34 C34           -0.3548    -4.2217    -6.0535 C.3     
  35 C35            2.1797    -4.3411    -6.0779 C.3     
  36 S36            2.6248    -6.0786    -5.8064 S.o2    
  37 O37            2.9902    -6.2936    -4.4501 O.2     
  38 O38            1.7020    -6.9379    -6.4616 O.2     
  39 N39            4.0375    -6.2795    -6.6468 N.am    
  40 S40           -0.8147    -2.6825    -6.8961 S.o2    
  41 O41           -1.1202    -1.6679    -5.9493 O.2     
  42 O42            0.0628    -2.4286    -7.9846 O.2     
  43 N43           -2.2679    -3.0225    -7.6136 N.am    
  44 H44            4.5271     1.5290    -0.0304 H       
  45 H45            2.3349     5.2181     0.0081 H       
  46 H46            0.2260     3.9901     0.0212 H       
  47 H47            3.9672     6.0319    -0.0017 H       
  48 H48            6.6548     6.0502     0.8660 H       
  49 H49            6.6399     6.0598    -0.9139 H       
  50 H50            5.7635     7.9218     2.1261 H       
  51 H51            5.2787    10.3350     2.1473 H       
  52 H52            5.2433    10.3579    -2.1262 H       
  53 H53            5.7384     7.9468    -2.1390 H       
  54 H54            4.6120    13.5333    -1.0975 H       
  55 H55            5.7496    12.3662    -1.8129 H       
  56 H56            4.0047    12.0150    -1.8005 H       
  57 H57           -2.1134     1.3219     0.0192 H       
  58 H58           -1.3652     2.6671     0.9130 H       
  59 H59           -1.3736     2.6768    -0.8669 H       
  60 H60            1.9463    -2.5881     0.4847 H       
  61 H61            0.1684    -2.5041     0.5017 H       
  62 H62            3.1593    -2.8241    -1.6023 H       
  63 H63            3.1046    -3.6321    -3.9263 H       
  64 H64           -1.1674    -3.4305    -3.8853 H       
  65 H65           -1.1016    -2.6329    -1.5579 H       
  66 H66           -0.2692    -5.0250    -6.7853 H       
  67 H67           -1.1203    -4.4777    -5.3210 H       
  68 H68            2.0474    -4.1624    -7.1450 H       
  69 H69            2.9742    -3.6989    -5.6978 H       
  70 H70            4.6943    -6.9258    -6.3438 H       
  71 H71            4.2082    -5.7509    -7.4420 H       
  72 H72           -2.9203    -2.3170    -7.7460 H       
  73 H73           -2.4667    -3.9272    -7.9016 H       
@<TRIPOS>BOND
   1    1    2 am
   2    1   10 1
   3    1   25 1
   4    2    3 am
   5    2   24 2
   6    3    4 am
   7    3   26 1
   8    4    5 1
   9    4   23 2
  10    5    6 ar
  11    5   10 ar
  12    6    7 ar
  13    6   44 1
  14    7    8 ar
  15    7   11 1
  16    8    9 ar
  17    8   45 1
  18    9   10 ar
  19    9   46 1
  20   11   12 2
  21   11   13 am
  22   13   14 1
  23   13   47 1
  24   14   15 1
  25   14   48 1
  26   14   49 1
  27   15   16 ar
  28   15   20 ar
  29   16   17 ar
  30   16   50 1
  31   17   18 ar
  32   17   51 1
  33   18   19 ar
  34   18   21 1
  35   19   20 ar
  36   19   52 1
  37   20   53 1
  38   21   22 1
  39   22   54 1
  40   22   55 1
  41   22   56 1
  42   25   57 1
  43   25   58 1
  44   25   59 1
  45   26   27 1
  46   26   60 1
  47   26   61 1
  48   27   28 ar
  49   27   32 ar
  50   28   29 ar
  51   28   62 1
  52   29   30 ar
  53   29   63 1
  54   30   31 ar
  55   30   33 1
  56   31   32 ar
  57   31   64 1
  58   32   65 1
  59   33   34 1
  60   33   35 1
  61   34   40 1
  62   34   66 1
  63   34   67 1
  64   35   36 1
  65   35   68 1
  66   35   69 1
  67   36   37 2
  68   36   38 2
  69   36   39 am
  70   39   70 1
  71   39   71 1
  72   40   41 2
  73   40   42 2
  74   40   43 am
  75   43   72 1
  76   43   73 1

#	End of record

