#	Name: ASD01810807
#	Creating user name:	WinNT
#	Creation time:	15. 06. 2019 19:25

#	Modifying user name:	WinNT
#	Modification time:	15. 06. 2019 19:25

#	Program:	/corina/corina34_cracker 3.40 0067  02.08.2006

@<TRIPOS>MOLECULE
ASD01810807
  21   21    0    0    0
SMALL
NO_CHARGES


@<TRIPOS>ATOM
   1 C1            -0.0098     1.4712     0.0873 C.2     
   2 C2             0.0060    -0.0047     0.0395 C.ar    
   3 C3             1.2138    -0.6884    -0.1185 C.ar    
   4 C4             1.2219    -2.0664    -0.1619 C.ar    
   5 C5             0.0357    -2.7727    -0.0497 C.ar    
   6 C6            -1.1648    -2.1009     0.1071 C.ar    
   7 C7            -1.1857    -0.7228     0.1578 C.ar    
   8 O8             1.0356     2.0899     0.0946 O.2     
   9 O9            -1.1836     2.1316     0.1172 O.3     
  10 C10            2.5051     0.0786    -0.2417 C.3     
  11 Br11           0.0559    -4.6626    -0.1115 Br      
  12 C12           -1.1232     3.5816     0.1636 C.3     
  13 H13            2.1551    -2.5962    -0.2840 H       
  14 H14           -2.0863    -2.6574     0.1940 H       
  15 H15           -2.1222    -0.2001     0.2846 H       
  16 H16            2.8705     0.3371     0.7522 H       
  17 H17            3.2459    -0.5367    -0.7525 H       
  18 H18            2.3331     0.9902    -0.8140 H       
  19 H19           -0.6012     3.9520    -0.7187 H       
  20 H20           -2.1348     3.9870     0.1841 H       
  21 H21           -0.5882     3.8945     1.0603 H       
@<TRIPOS>BOND
   1    1    2 1
   2    1    8 2
   3    1    9 1
   4    2    3 ar
   5    2    7 ar
   6    3    4 ar
   7    3   10 1
   8    4    5 ar
   9    4   13 1
  10    5    6 ar
  11    5   11 1
  12    6    7 ar
  13    6   14 1
  14    7   15 1
  15    9   12 1
  16   10   16 1
  17   10   17 1
  18   10   18 1
  19   12   19 1
  20   12   20 1
  21   12   21 1

#	End of record

