#	Name: ASD04840109
#	Creating user name:	WinNT
#	Creation time:	15. 06. 2019 20:52

#	Modifying user name:	WinNT
#	Modification time:	15. 06. 2019 20:52

#	Program:	/corina/corina34_cracker 3.40 0067  02.08.2006

@<TRIPOS>MOLECULE
ASD04840109
  49   52    0    0    0
SMALL
NO_CHARGES


@<TRIPOS>ATOM
   1 C1             0.0329     1.3984     0.7325 C.ar    
   2 C2             0.0652     0.0249     0.8720 C.ar    
   3 Cl3            1.5889    -0.8058     0.9179 Cl      
   4 C4            -1.1154    -0.6908     0.9758 C.ar    
   5 C5            -1.0734    -2.1895     1.1284 C.3     
   6 C6            -2.3336    -0.0358     0.9405 C.ar    
   7 C7            -2.3792     1.3359     0.8015 C.ar    
   8 C8            -1.1927     2.0645     0.7016 C.ar    
   9 C9            -1.2349     3.5349     0.5530 C.2     
  10 S10           -2.7091     4.4826     0.4962 S.3     
  11 C11           -0.1569     4.3125     0.4505 C.2     
  12 C12           -0.4434     5.7245     0.3130 C.ar    
  13 C13           -1.8173     5.9865     0.3189 C.ar    
  14 N14           -2.2386     7.2523     0.2020 N.ar    
  15 C15           -1.3849     8.2421     0.0788 C.ar    
  16 N16           -0.0784     8.0474     0.0629 N.ar    
  17 C17            0.4356     6.8325     0.1813 C.ar    
  18 N18            1.8055     6.6451     0.1706 N.pl3   
  19 C19            2.7013     7.7962     0.0341 C.3     
  20 P20            3.3889     7.8344    -1.6538 P.3     
  21 O21            4.2388     6.6417    -1.8674 O.2     
  22 O22            2.1856     7.8345    -2.7235 O.3     
  23 O23            4.2748     9.1655    -1.8424 O.3     
  24 C24            3.8420     7.6777     1.0469 C.3     
  25 C25            3.2819     7.7438     2.4444 C.ar    
  26 C26            3.0013     6.5781     3.1321 C.ar    
  27 C27            2.4868     6.6392     4.4158 C.ar    
  28 F28            2.2126     5.5005     5.0891 F       
  29 C29            2.2539     7.8684     5.0095 C.ar    
  30 C30            2.5351     9.0324     4.3201 C.ar    
  31 C31            3.0543     8.9702     3.0401 C.ar    
  32 H32            0.9543     1.9561     0.6519 H       
  33 H33           -1.0370    -2.4460     2.1871 H       
  34 H34           -1.9658    -2.6255     0.6794 H       
  35 H35           -0.1871    -2.5809     0.6289 H       
  36 H36           -3.2511    -0.5998     1.0216 H       
  37 H37           -3.3310     1.8455     0.7738 H       
  38 H38            0.8492     3.9204     0.4688 H       
  39 H39           -1.7636     9.2493    -0.0131 H       
  40 H40            2.1735     5.7514     0.2535 H       
  41 H41            2.1441     8.7143     0.2203 H       
  42 H42            1.6095     7.0599    -2.6676 H       
  43 H43            4.9740     9.2694    -1.1825 H       
  44 H44            4.3557     6.7267     0.9060 H       
  45 H45            4.5461     8.4964     0.8985 H       
  46 H46            3.1831     5.6200     2.6679 H       
  47 H47            1.8521     7.9173     6.0108 H       
  48 H48            2.3535     9.9912     4.7829 H       
  49 H49            3.2780     9.8804     2.5037 H       
@<TRIPOS>BOND
   1    1    2 ar
   2    1   32 1
   3    1    8 ar
   4    2    3 1
   5    2    4 ar
   6    4    5 1
   7    4    6 ar
   8    5   33 1
   9    5   34 1
  10    5   35 1
  11    6   36 1
  12    6    7 ar
  13    7    8 ar
  14    7   37 1
  15    8    9 1
  16    9   11 2
  17    9   10 1
  18   10   13 1
  19   11   38 1
  20   11   12 1
  21   12   17 ar
  22   12   13 ar
  23   13   14 ar
  24   14   15 ar
  25   15   16 ar
  26   15   39 1
  27   16   17 ar
  28   17   18 1
  29   18   19 1
  30   18   40 1
  31   19   24 1
  32   19   41 1
  33   19   20 1
  34   20   22 1
  35   20   21 2
  36   20   23 1
  37   22   42 1
  38   23   43 1
  39   24   25 1
  40   24   44 1
  41   24   45 1
  42   25   26 ar
  43   25   31 ar
  44   26   27 ar
  45   26   46 1
  46   27   28 1
  47   27   29 ar
  48   29   47 1
  49   29   30 ar
  50   30   48 1
  51   30   31 ar
  52   31   49 1

#	End of record

