#	Name: ASD01884168
#	Creating user name:	WinNT
#	Creation time:	15. 06. 2019 19:47

#	Modifying user name:	WinNT
#	Modification time:	15. 06. 2019 19:47

#	Program:	/corina/corina34_cracker 3.40 0067  02.08.2006

@<TRIPOS>MOLECULE
ASD01884168
  34   37    0    0    0
SMALL
NO_CHARGES


@<TRIPOS>ATOM
   1 C1            -0.0168     1.3898     0.0097 C.ar    
   2 C2             0.0021    -0.0041     0.0020 C.ar    
   3 C3            -1.1849    -0.7052     0.0096 C.ar    
   4 C4            -2.3994     0.0018     0.0250 C.ar    
   5 C5            -2.3266     1.3990     0.0318 C.ar    
   6 N6            -1.1748     2.0398     0.0298 N.ar    
   7 N7            -3.6831    -0.5073     0.0349 N.am    
   8 C8            -4.7106     0.3473     0.0497 C.2     
   9 S9            -4.0020     1.9707     0.0515 S.3     
  10 O10           -5.8947     0.0666     0.0593 O.2     
  11 C11            1.2562     2.1468     0.0016 C.ar    
  12 C12           -3.9139    -1.9540     0.0290 C.3     
  13 C13           -3.9797    -2.4659     1.4693 C.3     
  14 C14           -4.3322    -3.9398     1.6797 C.3     
  15 C15           -2.9011    -3.4539     1.9179 C.3     
  16 F16           -1.9301    -3.8201     0.9796 F       
  17 F17           -2.4593    -3.3704     3.2426 F       
  18 C18            1.2537     3.5568     0.0092 C.ar    
  19 C19            2.4872     4.2161     0.0009 C.ar    
  20 C20            3.6479     3.4691    -0.0142 C.ar    
  21 N21            3.6117     2.1501    -0.0210 N.ar    
  22 C22            2.4793     1.4791    -0.0079 C.ar    
  23 C23            0.0249     4.2919     0.0245 C.1     
  24 N24           -0.9500     4.8750     0.0366 N.1     
  25 H25            0.9436    -0.5330    -0.0102 H       
  26 H26           -1.1815    -1.7852     0.0034 H       
  27 H27           -4.8551    -2.1697    -0.4767 H       
  28 H28           -3.0974    -2.4500    -0.4960 H       
  29 H29           -4.3454    -1.7508     2.2061 H       
  30 H30           -4.9295    -4.1943     2.5553 H       
  31 H31           -4.5172    -4.5447     0.7921 H       
  32 H32            2.5309     5.2952     0.0059 H       
  33 H33            4.6029     3.9734    -0.0210 H       
  34 H34            2.4982     0.3992    -0.0141 H       
@<TRIPOS>BOND
   1    1    2 ar
   2    1   11 1
   3    1    6 ar
   4    2    3 ar
   5    2   25 1
   6    3    4 ar
   7    3   26 1
   8    4    5 ar
   9    4    7 1
  10    5    6 ar
  11    5    9 1
  12    7    8 am
  13    7   12 1
  14    8    9 1
  15    8   10 2
  16   11   18 ar
  17   11   22 ar
  18   12   13 1
  19   12   27 1
  20   12   28 1
  21   13   14 1
  22   13   15 1
  23   13   29 1
  24   14   15 1
  25   14   30 1
  26   14   31 1
  27   15   16 1
  28   15   17 1
  29   18   19 ar
  30   18   23 1
  31   19   20 ar
  32   19   32 1
  33   20   21 ar
  34   20   33 1
  35   21   22 ar
  36   22   34 1
  37   23   24 3

#	End of record

