#	Name: ASD03082076
#	Creating user name:	WinNT
#	Creation time:	15. 06. 2019 20:27

#	Modifying user name:	WinNT
#	Modification time:	15. 06. 2019 20:27

#	Program:	/corina/corina34_cracker 3.40 0067  02.08.2006

@<TRIPOS>MOLECULE
ASD03082076
  55   57    0    0    0
SMALL
NO_CHARGES


@<TRIPOS>ATOM
   1 C1            -0.0176     1.4478     0.0100 C.3     
   2 O2             0.0021    -0.0041     0.0020 O.3     
   3 C3            -1.1897    -0.6319     0.0100 C.2     
   4 C4            -1.2470    -2.1081     0.0026 C.ar    
   5 O5            -2.2173     0.0157     0.0233 O.2     
   6 C6            -0.0680    -2.8555    -0.0126 C.ar    
   7 C7            -0.1288    -4.2338    -0.0195 C.ar    
   8 C8            -1.3545    -4.8753    -0.0117 C.ar    
   9 C9            -2.5271    -4.1406     0.0034 C.ar    
  10 C10           -2.4808    -2.7622     0.0167 C.ar    
  11 C11            1.4178     1.9774    -0.0009 C.3     
  12 C12            2.0960     1.5891    -1.3176 C.3     
  13 C13            3.5108     2.1738    -1.3457 C.3     
  14 C14            3.4332     3.6929    -1.1776 C.3     
  15 N15            2.7773     4.0127     0.0968 N.3     
  16 C16            1.4008     3.5022     0.1283 C.3     
  17 C17            2.8087     5.4582     0.3568 C.3     
  18 C18            1.9534     6.1825    -0.6846 C.3     
  19 C19            1.9861     7.6880    -0.4137 C.3     
  20 C20            1.1436     8.4014    -1.4396 C.ar    
  21 C21           -0.1997     8.6214    -1.1987 C.ar    
  22 C22           -0.9725     9.2758    -2.1396 C.ar    
  23 C23           -0.4019     9.7105    -3.3213 C.ar    
  24 C24            0.9416     9.4913    -3.5618 C.ar    
  25 C25            1.7154     8.8408    -2.6189 C.ar    
  26 C26           -3.7588    -1.9637     0.0336 C.3     
  27 F27           -4.8532    -2.8352     0.0328 F       
  28 F28           -3.7967    -1.1686     1.1841 F       
  29 F29           -3.8128    -1.1460    -1.1003 F       
  30 H30           -0.5448     1.8089    -0.8731 H       
  31 H31           -0.5278     1.7993     0.9068 H       
  32 H32            0.8895    -2.3559    -0.0194 H       
  33 H33            0.7826    -4.8132    -0.0313 H       
  34 H34           -1.3964    -5.9545    -0.0179 H       
  35 H35           -3.4806    -4.6477     0.0090 H       
  36 H36            1.9708     1.5470     0.8341 H       
  37 H37            2.1491     0.5030    -1.3936 H       
  38 H38            1.5211     1.9860    -2.1543 H       
  39 H39            4.0972     1.7471    -0.5319 H       
  40 H40            3.9837     1.9368    -2.2988 H       
  41 H41            4.4399     4.1108    -1.1828 H       
  42 H42            2.8584     4.1203    -1.9992 H       
  43 H43            0.8355     3.9305    -0.6994 H       
  44 H44            0.9313     3.7816     1.0715 H       
  45 H45            2.4137     5.6568     1.3531 H       
  46 H46            3.8365     5.8161     0.2955 H       
  47 H47            2.3484     5.9839    -1.6809 H       
  48 H48            0.9257     5.8246    -0.6233 H       
  49 H49            1.5911     7.8865     0.5826 H       
  50 H50            3.0139     8.0459    -0.4751 H       
  51 H51           -0.6454     8.2818    -0.2755 H       
  52 H52           -2.0221     9.4471    -1.9518 H       
  53 H53           -1.0058    10.2211    -4.0568 H       
  54 H54            1.3873     9.8306    -4.4852 H       
  55 H55            2.7650     8.6695    -2.8068 H       
@<TRIPOS>BOND
   1    1    2 1
   2    1   11 1
   3    1   30 1
   4    1   31 1
   5    2    3 1
   6    3    4 1
   7    3    5 2
   8    4    6 ar
   9    4   10 ar
  10    6    7 ar
  11    6   32 1
  12    7    8 ar
  13    7   33 1
  14    8    9 ar
  15    8   34 1
  16    9   10 ar
  17    9   35 1
  18   10   26 1
  19   11   12 1
  20   11   16 1
  21   11   36 1
  22   12   13 1
  23   12   37 1
  24   12   38 1
  25   13   14 1
  26   13   39 1
  27   13   40 1
  28   14   15 1
  29   14   41 1
  30   14   42 1
  31   15   16 1
  32   15   17 1
  33   16   43 1
  34   16   44 1
  35   17   18 1
  36   17   45 1
  37   17   46 1
  38   18   19 1
  39   18   47 1
  40   18   48 1
  41   19   20 1
  42   19   49 1
  43   19   50 1
  44   20   21 ar
  45   20   25 ar
  46   21   22 ar
  47   21   51 1
  48   22   23 ar
  49   22   52 1
  50   23   24 ar
  51   23   53 1
  52   24   25 ar
  53   24   54 1
  54   25   55 1
  55   26   27 1
  56   26   28 1
  57   26   29 1

#	End of record

