#	Name: ASD01230693
#	Creating user name:	WinNT
#	Creation time:	15. 06. 2019 19:14

#	Modifying user name:	WinNT
#	Modification time:	15. 06. 2019 19:14

#	Program:	/corina/corina34_cracker 3.40 0067  02.08.2006

@<TRIPOS>MOLECULE
ASD01230693
  39   41    0    0    0
SMALL
NO_CHARGES


@<TRIPOS>ATOM
   1 C1            -0.0169     1.3980     0.0097 C.ar    
   2 C2             0.0021    -0.0041     0.0020 C.ar    
   3 C3             1.2325    -0.6605    -0.0132 C.ar    
   4 C4             2.3881     0.1052    -0.0201 C.ar    
   5 C5             2.2900     1.4831    -0.0118 C.ar    
   6 N6             1.1147     2.0833     0.0026 N.ar    
   7 N7            -1.2306     2.0711     0.0191 N.pl3   
   8 C8            -1.2643    -0.7756     0.0104 C.ar    
   9 C9            -1.4677    -1.7964    -0.9166 C.ar    
  10 C10           -2.6483    -2.5110    -0.9041 C.ar    
  11 C11           -3.6287    -2.2160     0.0261 C.ar    
  12 C12           -3.4325    -1.2037     0.9482 C.ar    
  13 C13           -2.2533    -0.4865     0.9491 C.ar    
  14 C14           -4.9157    -3.0000     0.0346 C.3     
  15 C15           -4.7694    -4.1957     0.9401 C.ar    
  16 C16           -5.0936    -4.0919     2.2799 C.ar    
  17 C17           -4.9595    -5.1887     3.1105 C.ar    
  18 C18           -4.5016    -6.3894     2.6012 C.ar    
  19 C19           -4.1782    -6.4935     1.2612 C.ar    
  20 C20           -4.3165    -5.3979     0.4297 C.ar    
  21 C21           -4.3544    -7.5849     3.5069 C.3     
  22 H22            1.2838    -1.7392    -0.0192 H       
  23 H23            3.3571    -0.3716    -0.0316 H       
  24 H24            3.1905     2.0793    -0.0172 H       
  25 H25           -2.0622     1.5717     0.0203 H       
  26 H26           -1.2474     3.0409     0.0245 H       
  27 H27           -0.7031    -2.0274    -1.6435 H       
  28 H28           -2.8072    -3.3019    -1.6222 H       
  29 H29           -4.2016    -0.9771     1.6717 H       
  30 H30           -2.0992     0.3004     1.6725 H       
  31 H31           -5.7248    -2.3662     0.3975 H       
  32 H32           -5.1431    -3.3360    -0.9771 H       
  33 H33           -5.4514    -3.1537     2.6777 H       
  34 H34           -5.2121    -5.1074     4.1573 H       
  35 H35           -3.8202    -7.4316     0.8634 H       
  36 H36           -4.0674    -5.4802    -0.6180 H       
  37 H37           -5.2852    -8.1520     3.5141 H       
  38 H38           -3.5455    -8.2187     3.1434 H       
  39 H39           -4.1260    -7.2486     4.5182 H       
@<TRIPOS>BOND
   1    1    2 ar
   2    1    6 ar
   3    1    7 1
   4    2    3 ar
   5    2    8 1
   6    3    4 ar
   7    3   22 1
   8    4    5 ar
   9    4   23 1
  10    5    6 ar
  11    5   24 1
  12    7   25 1
  13    7   26 1
  14    8    9 ar
  15    8   13 ar
  16    9   10 ar
  17    9   27 1
  18   10   11 ar
  19   10   28 1
  20   11   12 ar
  21   11   14 1
  22   12   13 ar
  23   12   29 1
  24   13   30 1
  25   14   15 1
  26   14   31 1
  27   14   32 1
  28   15   16 ar
  29   15   20 ar
  30   16   17 ar
  31   16   33 1
  32   17   18 ar
  33   17   34 1
  34   18   19 ar
  35   18   21 1
  36   19   20 ar
  37   19   35 1
  38   20   36 1
  39   21   37 1
  40   21   38 1
  41   21   39 1

#	End of record

