#	Name: ASD04881062
#	Creating user name:	WinNT
#	Creation time:	15. 06. 2019 20:53

#	Modifying user name:	WinNT
#	Modification time:	15. 06. 2019 20:53

#	Program:	/corina/corina34_cracker 3.40 0067  02.08.2006

@<TRIPOS>MOLECULE
ASD04881062
  78   82    0    0    0
SMALL
NO_CHARGES


@<TRIPOS>ATOM
   1 C1             0.4801     1.1218    -0.4801 C.2     
   2 C2             1.6970     1.6911    -0.7248 C.2     
   3 C3             2.0760     3.0758    -0.4266 C.2     
   4 O4             1.2704     3.8304     0.0863 O.2     
   5 O5             2.4894     0.7562    -1.2890 O.3     
   6 C6             1.8079    -0.3906    -1.4087 C.2     
   7 C7             0.5610    -0.2085    -0.9206 C.2     
   8 N8             3.3166     3.5131    -0.7204 N.am    
   9 C9             3.6453     4.8625    -0.5372 C.ar    
  10 C10            4.9424     5.2215    -0.1587 C.ar    
  11 C11            5.2700     6.5598     0.0229 C.ar    
  12 C12            4.3185     7.5373    -0.1692 C.ar    
  13 C13            3.0202     7.1855    -0.5475 C.ar    
  14 C14            2.6894     5.8403    -0.7360 C.ar    
  15 C15            2.0013     8.2325    -0.7527 C.2     
  16 O16            0.8717     7.9254    -1.0819 O.2     
  17 N17            2.3224     9.5294    -0.5751 N.am    
  18 N18            5.9072     4.2367     0.0370 N.3     
  19 C19            5.5756     3.3977     1.1971 C.3     
  20 C20            6.6149     2.2820     1.3301 C.3     
  21 N21            7.9510     2.8758     1.4779 N.3     
  22 C22            8.2826     3.7148     0.3179 C.3     
  23 C23            7.2434     4.8305     0.1849 C.3     
  24 C24            8.9188     1.8880     1.6743 C.ar    
  25 C25            8.9156     1.1321     2.8400 C.ar    
  26 C26            9.8736     0.1561     3.0306 C.ar    
  27 C27           10.8357    -0.0692     2.0630 C.ar    
  28 C28           10.8418     0.6812     0.9017 C.ar    
  29 C29            9.8830     1.6553     0.7020 C.ar    
  30 C30            7.8683     1.3775     3.8953 C.3     
  31 C31            1.3106    10.5690    -0.7788 C.3     
  32 C32            1.9211    11.9220    -0.5185 C.ar    
  33 C33            2.5154    12.6226    -1.5517 C.ar    
  34 C34            3.0753    13.8635    -1.3130 C.ar    
  35 C35            3.0408    14.4043    -0.0410 C.ar    
  36 C36            2.4459    13.7044     0.9916 C.ar    
  37 C37            1.8819    12.4650     0.7519 C.ar    
  38 C38            2.4087    14.2937     2.3781 C.3     
  39 N39            1.1842    15.0889     2.5395 N.3     
  40 C40            0.9930    15.4826     3.9418 C.3     
  41 C41            1.2008    16.2655     1.6600 C.3     
  42 H42           -0.3770     1.6009    -0.0304 H       
  43 H43            2.1916    -1.3095    -1.8268 H       
  44 H44           -0.2252    -0.9476    -0.8773 H       
  45 H45            3.9818     2.8935    -1.0587 H       
  46 H46            6.2727     6.8341     0.3157 H       
  47 H47            4.5761     8.5765    -0.0269 H       
  48 H48            1.6879     5.5657    -1.0328 H       
  49 H49            3.2235     9.7743    -0.3125 H       
  50 H50            5.5796     4.0079     2.1002 H       
  51 H51            4.5873     2.9594     1.0583 H       
  52 H52            6.3873     1.6757     2.2069 H       
  53 H53            6.5920     1.6555     0.4384 H       
  54 H54            9.2709     4.1531     0.4567 H       
  55 H55            8.2787     3.1046    -0.5853 H       
  56 H56            7.4709     5.4368    -0.6919 H       
  57 H57            7.2662     5.4570     1.0765 H       
  58 H58            9.8717    -0.4319     3.9366 H       
  59 H59           11.5842    -0.8328     2.2149 H       
  60 H60           11.5945     0.5028     0.1481 H       
  61 H61            9.8856     2.2381    -0.2072 H       
  62 H62            7.0330     0.6937     3.7442 H       
  63 H63            8.3005     1.2106     4.8819 H       
  64 H64            7.5137     2.4057     3.8232 H       
  65 H65            0.9469    10.5260    -1.8055 H       
  66 H66            0.4798    10.4071    -0.0920 H       
  67 H67            2.5423    12.2001    -2.5453 H       
  68 H68            3.5402    14.4104    -2.1199 H       
  69 H69            3.4790    15.3736     0.1457 H       
  70 H70            1.4138    11.9197     1.5580 H       
  71 H71            2.4199    13.4904     3.1148 H       
  72 H72            3.2792    14.9331     2.5246 H       
  73 H73            1.8435    16.0798     4.2706 H       
  74 H74            0.0795    16.0702     4.0329 H       
  75 H75            0.9143    14.5899     4.5622 H       
  76 H76            1.2732    15.9419     0.6216 H       
  77 H77            0.2829    16.8364     1.7995 H       
  78 H78            2.0588    16.8910     1.9062 H       
@<TRIPOS>BOND
   1    1    7 1
   2    1    2 2
   3    1   42 1
   4    2    3 1
   5    2    5 1
   6    3    4 2
   7    3    8 am
   8    5    6 1
   9    6    7 2
  10    6   43 1
  11    7   44 1
  12    8    9 1
  13    8   45 1
  14    9   10 ar
  15    9   14 ar
  16   10   11 ar
  17   10   18 1
  18   11   12 ar
  19   11   46 1
  20   12   13 ar
  21   12   47 1
  22   13   14 ar
  23   13   15 1
  24   14   48 1
  25   15   16 2
  26   15   17 am
  27   17   31 1
  28   17   49 1
  29   18   19 1
  30   18   23 1
  31   19   20 1
  32   19   50 1
  33   19   51 1
  34   20   21 1
  35   20   52 1
  36   20   53 1
  37   21   22 1
  38   21   24 1
  39   22   23 1
  40   22   54 1
  41   22   55 1
  42   23   56 1
  43   23   57 1
  44   24   25 ar
  45   24   29 ar
  46   25   26 ar
  47   25   30 1
  48   26   27 ar
  49   26   58 1
  50   27   28 ar
  51   27   59 1
  52   28   29 ar
  53   28   60 1
  54   29   61 1
  55   30   62 1
  56   30   63 1
  57   30   64 1
  58   31   32 1
  59   31   65 1
  60   31   66 1
  61   32   33 ar
  62   32   37 ar
  63   33   34 ar
  64   33   67 1
  65   34   35 ar
  66   34   68 1
  67   35   36 ar
  68   35   69 1
  69   36   37 ar
  70   36   38 1
  71   37   70 1
  72   38   39 1
  73   38   71 1
  74   38   72 1
  75   39   40 1
  76   39   41 1
  77   40   73 1
  78   40   74 1
  79   40   75 1
  80   41   76 1
  81   41   77 1
  82   41   78 1

#	End of record

