#	Name: ASD08150173
#	Creating user name:	WinNT
#	Creation time:	15. 06. 2019 21:15

#	Modifying user name:	WinNT
#	Modification time:	15. 06. 2019 21:15

#	Program:	/corina/corina34_cracker 3.40 0067  02.08.2006

@<TRIPOS>MOLECULE
ASD08150173
  87   92    0    0    0
SMALL
NO_CHARGES


@<TRIPOS>ATOM
   1 O1             0.3990    -3.0602     1.2396 O.3     
   2 C2             0.8135    -4.1338     0.5577 C.2     
   3 N3             2.0159    -3.9817    -0.0140 N.am    
   4 C4             2.5237    -2.6366     0.2962 C.3     
   5 C5             1.4079    -2.0124     1.1562 C.3     
   6 O6             0.1597    -5.1536     0.4654 O.2     
   7 C7             1.9358    -1.6641     2.5494 C.3     
   8 C8             2.7276    -1.8298    -0.9878 C.3     
   9 O9             3.7883    -2.4085    -1.7506 O.3     
  10 Si10           4.0047    -1.7213    -3.2138 Si      
  11 C11            4.9876    -2.8758    -4.3049 C.ar    
  12 C12            4.4319    -3.3633    -5.4730 C.ar    
  13 C13            5.1592    -4.2178    -6.2803 C.ar    
  14 C14            6.4423    -4.5844    -5.9198 C.ar    
  15 C15            6.9984    -4.0962    -4.7522 C.ar    
  16 C16            6.2726    -3.2383    -3.9470 C.ar    
  17 C17            2.3420    -1.3887    -3.9975 C.ar    
  18 C18            1.6737    -2.4029    -4.6575 C.ar    
  19 C19            0.4433    -2.1568    -5.2375 C.ar    
  20 C20           -0.1190    -0.8965    -5.1572 C.ar    
  21 C21            0.5488     0.1175    -4.4964 C.ar    
  22 C22            1.7773    -0.1298    -3.9126 C.ar    
  23 C23            4.9299    -0.1164    -3.0154 C.3     
  24 C24            6.3794    -0.4086    -2.6225 C.3     
  25 C25            4.9051     0.6533    -4.3375 C.3     
  26 C26            4.2649     0.7240    -1.9234 C.3     
  27 C27            4.6181    -5.7396    -1.7346 C.ar    
  28 N28            3.9909    -6.7829    -2.2545 N.ar    
  29 C29            2.6832    -6.9572    -2.0635 C.ar    
  30 C30            1.9791    -6.0226    -1.3053 C.ar    
  31 C31            2.6759    -4.9396    -0.7762 C.ar    
  32 N32            3.9805    -4.8327    -1.0095 N.ar    
  33 C33            0.7291   -10.2452    -3.7078 C.ar    
  34 N34            2.0304   -10.0989    -3.9157 N.ar    
  35 C35            2.6858    -9.0694    -3.4111 C.ar    
  36 C36            1.9874    -8.1277    -2.6492 C.ar    
  37 C37            0.6166    -8.3183    -2.4534 C.ar    
  38 N38            0.0327    -9.3741    -2.9913 N.ar    
  39 C39            4.1649    -8.9121    -3.6526 C.3     
  40 F40            4.6032    -9.9107    -4.5289 F       
  41 F41            4.4146    -7.6557    -4.2150 F       
  42 F42            4.8502    -9.0239    -2.4380 F       
  43 N43            5.9777    -5.5953    -1.9497 N.3     
  44 C44            6.5628    -6.8378    -2.4743 C.3     
  45 C45            8.0517    -6.6162    -2.7534 C.3     
  46 O46            8.6964    -6.1784    -1.5543 O.3     
  47 C47            8.1520    -4.9703    -1.0161 C.3     
  48 C48            6.6641    -5.1752    -0.7194 C.3     
  49 N49            0.0793   -11.3337    -4.2583 N.pl3   
  50 H50            3.4534    -2.6993     0.8618 H       
  51 H51            0.9998    -1.1270     0.6688 H       
  52 H52            2.3592    -2.5562     3.0110 H       
  53 H53            2.7067    -0.8981     2.4648 H       
  54 H54            1.1178    -1.2899     3.1648 H       
  55 H55            1.8091    -1.8426    -1.5746 H       
  56 H56            2.9822    -0.8008    -0.7338 H       
  57 H57            3.4293    -3.0769    -5.7546 H       
  58 H58            4.7248    -4.5992    -7.1926 H       
  59 H59            7.0103    -5.2525    -6.5502 H       
  60 H60            8.0008    -4.3828    -4.4704 H       
  61 H61            6.7084    -2.8539    -3.0366 H       
  62 H62            2.1130    -3.3875    -4.7203 H       
  63 H63           -0.0785    -2.9490    -5.7538 H       
  64 H64           -1.0800    -0.7040    -5.6109 H       
  65 H65            0.1097     1.1022    -4.4339 H       
  66 H66            2.2974     0.6615    -3.3932 H       
  67 H67            6.8780    -0.9336    -3.4374 H       
  68 H68            6.8980     0.5292    -2.4234 H       
  69 H69            6.3949    -1.0296    -1.7269 H       
  70 H70            3.8882     0.9867    -4.5448 H       
  71 H71            5.5638     1.5189    -4.2663 H       
  72 H72            5.2456     0.0029    -5.1431 H       
  73 H73            4.3428     0.2053    -0.9679 H       
  74 H74            4.7643     1.6904    -1.8540 H       
  75 H75            3.2141     0.8749    -2.1704 H       
  76 H76            0.9190    -6.1358    -1.1329 H       
  77 H77            0.0430    -7.6124    -1.8711 H       
  78 H78            6.4448    -7.6343    -1.7396 H       
  79 H79            6.0567    -7.1165    -3.3986 H       
  80 H80            8.5022    -7.5505    -3.0885 H       
  81 H81            8.1680    -5.8573    -3.5272 H       
  82 H82            8.6750    -4.7142    -0.0947 H       
  83 H83            8.2712    -4.1635    -1.7393 H       
  84 H84            6.2320    -4.2403    -0.3627 H       
  85 H85            6.5477    -5.9451     0.0434 H       
  86 H86            0.5750   -11.9774    -4.7882 H       
  87 H87           -0.8725   -11.4539    -4.1148 H       
@<TRIPOS>BOND
   1    1    2 1
   2    1    5 1
   3    2    3 am
   4    2    6 2
   5    3    4 1
   6    3   31 1
   7    4    5 1
   8    4    8 1
   9    4   50 1
  10    5    7 1
  11    5   51 1
  12    7   52 1
  13    7   53 1
  14    7   54 1
  15    8    9 1
  16    8   55 1
  17    8   56 1
  18    9   10 1
  19   10   11 1
  20   10   17 1
  21   10   23 1
  22   11   12 ar
  23   11   16 ar
  24   12   13 ar
  25   12   57 1
  26   13   14 ar
  27   13   58 1
  28   14   15 ar
  29   14   59 1
  30   15   16 ar
  31   15   60 1
  32   16   61 1
  33   17   18 ar
  34   17   22 ar
  35   18   19 ar
  36   18   62 1
  37   19   20 ar
  38   19   63 1
  39   20   21 ar
  40   20   64 1
  41   21   22 ar
  42   21   65 1
  43   22   66 1
  44   23   24 1
  45   23   26 1
  46   23   25 1
  47   24   67 1
  48   24   68 1
  49   24   69 1
  50   25   70 1
  51   25   71 1
  52   25   72 1
  53   26   73 1
  54   26   74 1
  55   26   75 1
  56   27   28 ar
  57   27   32 ar
  58   27   43 1
  59   28   29 ar
  60   29   30 ar
  61   29   36 1
  62   30   31 ar
  63   30   76 1
  64   31   32 ar
  65   33   34 ar
  66   33   38 ar
  67   33   49 1
  68   34   35 ar
  69   35   36 ar
  70   35   39 1
  71   36   37 ar
  72   37   38 ar
  73   37   77 1
  74   39   40 1
  75   39   41 1
  76   39   42 1
  77   43   44 1
  78   43   48 1
  79   44   45 1
  80   44   78 1
  81   44   79 1
  82   45   46 1
  83   45   80 1
  84   45   81 1
  85   46   47 1
  86   47   48 1
  87   47   82 1
  88   47   83 1
  89   48   84 1
  90   48   85 1
  91   49   86 1
  92   49   87 1

#	End of record

