#	Name: ASD02198273
#	Creating user name:	WinNT
#	Creation time:	15. 06. 2019 20:19

#	Modifying user name:	WinNT
#	Modification time:	15. 06. 2019 20:19

#	Program:	/corina/corina34_cracker 3.40 0067  02.08.2006

@<TRIPOS>MOLECULE
ASD02198273
  31   32    0    0    0
SMALL
NO_CHARGES


@<TRIPOS>ATOM
   1 C1            -0.0165     1.3675     0.0096 C.2     
   2 C2             0.0021    -0.0041     0.0020 C.2     
   3 S3             1.6265     1.9880    -0.0028 S.3     
   4 C4             2.2876     0.4165    -0.0175 C.2     
   5 C5             1.2911    -0.5353    -0.0131 C.2     
   6 C6             1.5556    -1.9426    -0.0237 C.1     
   7 N7             3.6349     0.1364    -0.0319 N.3     
   8 N8            -1.1453    -0.7836     0.0092 N.pl3   
   9 C9            -1.1801     2.1603     0.0196 C.2     
  10 O10           -1.0796     3.5072     0.0264 O.3     
  11 C11            4.4302     1.3729    -0.0323 C.3     
  12 C12           -2.3010     4.2489     0.0365 C.3     
  13 N13            1.7653    -3.0591    -0.0320 N.1     
  14 C14            3.9851    -0.7086    -1.1829 C.3     
  15 C15            5.4778    -1.0444    -1.1272 C.3     
  16 O16            6.2336     0.1693    -1.0967 O.3     
  17 C17            5.9184     1.0161     0.0119 C.3     
  18 O18           -2.2773     1.6315     0.0222 O.2     
  19 H19           -2.0185    -0.3613     0.0198 H       
  20 H20           -1.0744    -1.7510     0.0037 H       
  21 H21            4.2189     1.9412    -0.9380 H       
  22 H22            4.1732     1.9711     0.8419 H       
  23 H23           -2.8826     4.0031    -0.8520 H       
  24 H24           -2.8739     3.9934     0.9279 H       
  25 H25           -2.0781     5.3158     0.0412 H       
  26 H26            3.4033    -1.6296    -1.1487 H       
  27 H27            3.7667    -0.1734    -2.1071 H       
  28 H28            5.6867    -1.6260    -0.2293 H       
  29 H29            5.7538    -1.6230    -2.0087 H       
  30 H30            6.5131     1.9278    -0.0458 H       
  31 H31            6.1401     0.4945     0.9430 H       
@<TRIPOS>BOND
   1    1    2 2
   2    1    3 1
   3    1    9 1
   4    2    8 1
   5    2    5 1
   6    3    4 1
   7    4    5 2
   8    4    7 1
   9    5    6 1
  10    6   13 3
  11    7   11 1
  12    7   14 1
  13    8   19 1
  14    8   20 1
  15    9   10 1
  16    9   18 2
  17   10   12 1
  18   11   17 1
  19   11   21 1
  20   11   22 1
  21   12   23 1
  22   12   24 1
  23   12   25 1
  24   14   15 1
  25   14   26 1
  26   14   27 1
  27   15   16 1
  28   15   28 1
  29   15   29 1
  30   16   17 1
  31   17   30 1
  32   17   31 1

#	End of record

