#	Name: ASD03331262
#	Creating user name:	WinNT
#	Creation time:	15. 06. 2019 20:38

#	Modifying user name:	WinNT
#	Modification time:	15. 06. 2019 20:38

#	Program:	/corina/corina34_cracker 3.40 0067  02.08.2006

@<TRIPOS>MOLECULE
ASD03331262
  68   72    0    0    0
SMALL
NO_CHARGES


@<TRIPOS>ATOM
   1 N1            -0.1957     1.4032     0.4691 N.am    
   2 C2            -0.0937     0.0736     1.0894 C.3     
   3 C3             0.5130    -0.8947     0.0683 C.3     
   4 N4             1.7797    -0.3437    -0.4316 N.3     
   5 C5             1.5651     0.9214    -1.1467 C.3     
   6 C6             1.0015     1.9641    -0.1754 C.3     
   7 C7            -1.3569     2.0872     0.4859 C.2     
   8 O8            -2.3622     1.5675     0.9306 O.2     
   9 N9            -1.4038     3.3472     0.0099 N.am    
  10 C10           -2.6337     4.0034    -0.1131 C.ar    
  11 C11           -2.7121     5.3764     0.0796 C.ar    
  12 C12           -3.9274     6.0212    -0.0429 C.ar    
  13 C13           -5.0652     5.3010    -0.3571 C.ar    
  14 C14           -4.9905     3.9337    -0.5497 C.ar    
  15 C15           -3.7773     3.2838    -0.4337 C.ar    
  16 C16            2.4781    -1.3171    -1.2817 C.3     
  17 C17            3.6369    -0.6427    -1.9698 C.ar    
  18 C18            4.8813    -0.6233    -1.3677 C.ar    
  19 C19            5.9467    -0.0049    -1.9962 C.ar    
  20 C20            5.7700     0.5950    -3.2276 C.ar    
  21 C21            4.5221     0.5765    -3.8345 C.ar    
  22 C22            3.4562    -0.0494    -3.2044 C.ar    
  23 O23            4.3455     1.1663    -5.0458 O.3     
  24 C24            5.4406     1.6611    -5.6802 C.ar    
  25 C25            5.6788     3.0272    -5.6901 C.ar    
  26 C26            6.3246     0.7992    -6.3139 C.ar    
  27 C27            7.4384     1.3018    -6.9592 C.ar    
  28 C28            7.6751     2.6629    -6.9749 C.ar    
  29 C29            6.7968     3.5287    -6.3381 C.ar    
  30 S30            6.3984     5.5915    -7.5348 S.o2    
  31 O31            7.0300     4.8674    -6.3544 O.3     
  32 O32            6.9022     6.9199    -7.5068 O.2     
  33 O33            6.5397     4.7302    -8.6561 O.2     
  34 C34            4.6703     5.7078    -7.2113 C.ar    
  35 C35            4.1660     6.8023    -6.5340 C.ar    
  36 C36            2.8103     6.8936    -6.2802 C.ar    
  37 C37            1.9587     5.8906    -6.7041 C.ar    
  38 C38            2.4628     4.7966    -7.3823 C.ar    
  39 C39            3.8180     4.7074    -7.6399 C.ar    
  40 H40            0.5482     0.1280     1.9687 H       
  41 H41           -1.0861    -0.2730     1.3779 H       
  42 H42            0.6981    -1.8572     0.5452 H       
  43 H43           -0.1792    -1.0274    -0.7631 H       
  44 H44            2.5132     1.2760    -1.5511 H       
  45 H45            0.8582     0.7635    -1.9612 H       
  46 H46            0.7332     2.8675    -0.7232 H       
  47 H47            1.7486     2.2003     0.5823 H       
  48 H48           -0.5850     3.7992    -0.2475 H       
  49 H49           -1.8238     5.9394     0.3254 H       
  50 H50           -3.9891     7.0889     0.1072 H       
  51 H51           -6.0144     5.8074    -0.4520 H       
  52 H52           -5.8809     3.3740    -0.7950 H       
  53 H53           -3.7187     2.2166    -0.5886 H       
  54 H54            2.8482    -2.1372    -0.6665 H       
  55 H55            1.7881    -1.7069    -2.0301 H       
  56 H56            5.0214    -1.0915    -0.4046 H       
  57 H57            6.9176     0.0092    -1.5235 H       
  58 H58            6.6022     1.0784    -3.7177 H       
  59 H59            2.4841    -0.0656    -3.6747 H       
  60 H60            4.9943     3.6993    -5.1940 H       
  61 H61            6.1421    -0.2652    -6.3024 H       
  62 H62            8.1252     0.6295    -7.4518 H       
  63 H63            8.5467     3.0532    -7.4793 H       
  64 H64            4.8314     7.5859    -6.2027 H       
  65 H65            2.4164     7.7483    -5.7504 H       
  66 H66            0.8995     5.9615    -6.5052 H       
  67 H67            1.7975     4.0128    -7.7132 H       
  68 H68            4.2119     3.8527    -8.1697 H       
@<TRIPOS>BOND
   1    1    2 1
   2    1    6 1
   3    1    7 am
   4    2    3 1
   5    2   40 1
   6    2   41 1
   7    3    4 1
   8    3   42 1
   9    3   43 1
  10    4    5 1
  11    4   16 1
  12    5    6 1
  13    5   44 1
  14    5   45 1
  15    6   46 1
  16    6   47 1
  17    7    8 2
  18    7    9 am
  19    9   10 1
  20    9   48 1
  21   10   11 ar
  22   10   15 ar
  23   11   12 ar
  24   11   49 1
  25   12   13 ar
  26   12   50 1
  27   13   14 ar
  28   13   51 1
  29   14   15 ar
  30   14   52 1
  31   15   53 1
  32   16   17 1
  33   16   54 1
  34   16   55 1
  35   17   18 ar
  36   17   22 ar
  37   18   19 ar
  38   18   56 1
  39   19   20 ar
  40   19   57 1
  41   20   21 ar
  42   20   58 1
  43   21   22 ar
  44   21   23 1
  45   22   59 1
  46   23   24 1
  47   24   25 ar
  48   24   26 ar
  49   25   29 ar
  50   25   60 1
  51   26   27 ar
  52   26   61 1
  53   27   28 ar
  54   27   62 1
  55   28   29 ar
  56   28   63 1
  57   29   31 1
  58   30   31 1
  59   30   32 2
  60   30   33 2
  61   30   34 1
  62   34   35 ar
  63   34   39 ar
  64   35   36 ar
  65   35   64 1
  66   36   37 ar
  67   36   65 1
  68   37   38 ar
  69   37   66 1
  70   38   39 ar
  71   38   67 1
  72   39   68 1

#	End of record

