#	Name: ASD09116407
#	Creating user name:	WinNT
#	Creation time:	15. 06. 2019 21:21

#	Modifying user name:	WinNT
#	Modification time:	15. 06. 2019 21:21

#	Program:	/corina/corina34_cracker 3.40 0067  02.08.2006

@<TRIPOS>MOLECULE
ASD09116407
  72   77    0    0    0
SMALL
NO_CHARGES


@<TRIPOS>ATOM
   1 N1            -1.1085     4.1755    -3.1524 N.2     
   2 N2            -1.7928     5.3708    -2.8788 N.pl3   
   3 C3             0.1224     4.3334    -2.7281 C.2     
   4 N4             0.2495     5.5584    -2.2044 N.2     
   5 C5            -0.8979     6.1970    -2.2879 C.2     
   6 N6            -1.1458     7.4839    -1.8493 N.pl3   
   7 C7            -3.1310     5.6516    -3.1604 C.ar    
   8 N8             1.1357     3.3783    -2.8092 N.pl3   
   9 C9             2.4398     3.7057    -2.4166 C.ar    
  10 C10            2.9065     5.0134    -2.5400 C.ar    
  11 C11            3.2806     2.7340    -1.8948 C.ar    
  12 N12            4.5102     3.0350    -1.5224 N.ar    
  13 C13            4.9881     4.2646    -1.6299 C.ar    
  14 C14            4.2008     5.2914    -2.1394 C.ar    
  15 N15           -3.7807     6.5613    -2.4498 N.ar    
  16 N16           -5.0153     6.8499    -2.6616 N.ar    
  17 C17           -5.7156     6.2485    -3.6099 C.ar    
  18 C18           -5.1069     5.2893    -4.4244 C.ar    
  19 C19           -3.7835     4.9770    -4.1955 C.ar    
  20 C20           -7.1525     6.5399    -3.8206 C.ar    
  21 C21           -8.0501     5.4752    -3.9144 C.ar    
  22 C22           -7.5462     4.0683    -3.7439 C.3     
  23 C23           -6.8272     3.5785    -4.9979 C.3     
  24 C24           -5.8879     4.6538    -5.5376 C.3     
  25 C25           -7.6112     7.8481    -3.9291 C.ar    
  26 C26           -8.9542     8.0857    -4.1486 C.ar    
  27 C27           -9.8371     7.0272    -4.2622 C.ar    
  28 C28           -9.3860     5.7238    -4.1457 C.ar    
  29 N29            6.2928     4.5342    -1.2234 N.3     
  30 C30            6.3140     5.5505    -0.1491 C.3     
  31 C31            7.5891     6.3908    -0.3472 C.3     
  32 C32            8.2640     5.8088    -1.6104 C.3     
  33 C33            7.0901     5.1068    -2.3382 C.3     
  34 N34            8.8238     6.8824    -2.4422 N.3     
  35 C35            9.8568     7.6296    -1.7124 C.3     
  36 C36           10.9958     6.6828    -1.3287 C.3     
  37 C37            9.3529     6.3489    -3.7045 C.3     
  38 C38            9.5729     7.4973    -4.6912 C.3     
  39 H39           -0.4366     8.0002    -1.4353 H       
  40 H40           -2.0289     7.8708    -1.9555 H       
  41 H41            0.9372     2.4874    -3.1376 H       
  42 H42            2.2725     5.7911    -2.9394 H       
  43 H43            2.9249     1.7195    -1.7918 H       
  44 H44            4.5964     6.2927    -2.2247 H       
  45 H45           -3.2729     4.2327    -4.7884 H       
  46 H46           -6.8554     4.0366    -2.9014 H       
  47 H47           -8.3899     3.4100    -3.5366 H       
  48 H48           -6.2497     2.6865    -4.7551 H       
  49 H49           -7.5651     3.3307    -5.7610 H       
  50 H50           -6.4740     5.4190    -6.0466 H       
  51 H51           -5.1960     4.2016    -6.2481 H       
  52 H52           -6.9210     8.6742    -3.8419 H       
  53 H53           -9.3156     9.1001    -4.2314 H       
  54 H54          -10.8846     7.2187    -4.4423 H       
  55 H55          -10.0805     4.9017    -4.2365 H       
  56 H56            5.4334     6.1885    -0.2241 H       
  57 H57            6.3393     5.0611     0.8245 H       
  58 H58            7.3313     7.4382    -0.5045 H       
  59 H59            8.2478     6.2879     0.5151 H       
  60 H60            9.0353     5.0882    -1.3383 H       
  61 H61            7.4600     4.3169    -2.9919 H       
  62 H62            6.4998     5.8292    -2.9019 H       
  63 H63           10.2449     8.4267    -2.3465 H       
  64 H64            9.4237     8.0614    -0.8101 H       
  65 H65           10.5980     5.8550    -0.7416 H       
  66 H66           11.4655     6.2946    -2.2324 H       
  67 H67           11.7353     7.2243    -0.7388 H       
  68 H68           10.3008     5.8445    -3.5168 H       
  69 H69            8.6409     5.6393    -4.1259 H       
  70 H70            9.9701     7.1020    -5.6261 H       
  71 H71            8.6242     7.9987    -4.8826 H       
  72 H72           10.2812     8.2094    -4.2678 H       
@<TRIPOS>BOND
   1    1    2 1
   2    1    3 2
   3    2    7 1
   4    2    5 1
   5    3    4 1
   6    3    8 1
   7    4    5 2
   8    5    6 1
   9    6   39 1
  10    6   40 1
  11    7   15 ar
  12    7   19 ar
  13    8    9 1
  14    8   41 1
  15    9   10 ar
  16    9   11 ar
  17   10   14 ar
  18   10   42 1
  19   11   12 ar
  20   11   43 1
  21   12   13 ar
  22   13   14 ar
  23   13   29 1
  24   14   44 1
  25   15   16 ar
  26   16   17 ar
  27   17   18 ar
  28   17   20 1
  29   18   19 ar
  30   18   24 1
  31   19   45 1
  32   20   21 ar
  33   20   25 ar
  34   21   22 1
  35   21   28 ar
  36   22   23 1
  37   22   46 1
  38   22   47 1
  39   23   24 1
  40   23   48 1
  41   23   49 1
  42   24   50 1
  43   24   51 1
  44   25   26 ar
  45   25   52 1
  46   26   27 ar
  47   26   53 1
  48   27   28 ar
  49   27   54 1
  50   28   55 1
  51   29   30 1
  52   29   33 1
  53   30   31 1
  54   30   56 1
  55   30   57 1
  56   31   32 1
  57   31   58 1
  58   31   59 1
  59   32   33 1
  60   32   34 1
  61   32   60 1
  62   33   61 1
  63   33   62 1
  64   34   35 1
  65   34   37 1
  66   35   36 1
  67   35   63 1
  68   35   64 1
  69   36   65 1
  70   36   66 1
  71   36   67 1
  72   37   38 1
  73   37   68 1
  74   37   69 1
  75   38   70 1
  76   38   71 1
  77   38   72 1

#	End of record

