#	Name: ASD01412001
#	Creating user name:	WinNT
#	Creation time:	15. 06. 2019 19:19

#	Modifying user name:	WinNT
#	Modification time:	15. 06. 2019 19:19

#	Program:	/corina/corina34_cracker 3.40 0067  02.08.2006

@<TRIPOS>MOLECULE
ASD01412001
  73   77    0    0    0
SMALL
NO_CHARGES


@<TRIPOS>ATOM
   1 C1            -0.3652     1.4743     3.3084 C.ar    
   2 C2            -0.1373     0.1999     2.7501 C.ar    
   3 C3            -1.2223    -0.6339     2.4426 C.ar    
   4 C4            -2.4941    -0.2131     2.6831 C.ar    
   5 C5            -2.7303     1.0532     3.2384 C.ar    
   6 C6            -1.6628     1.8925     3.5541 C.ar    
   7 N7             0.8691     2.0622     3.5037 N.pl3   
   8 C8             1.8453     1.1908     3.0837 C.2     
   9 C9             1.2647     0.0537     2.6219 C.2     
  10 C10            3.3001     1.4513     3.1271 C.2     
  11 C11            4.3554     0.5209     3.5485 C.2     
  12 C12            5.5124     1.1908     3.4213 C.2     
  13 O13            5.2555     2.4268     2.9668 O.3     
  14 C14            3.9399     2.6010     2.7792 C.2     
  15 C15            1.9849    -1.1504     2.0719 C.3     
  16 C16            1.6927    -2.3662     2.9536 C.3     
  17 C17            2.4239    -3.5887     2.3952 C.3     
  18 C18            1.9413    -3.8646     0.9697 C.3     
  19 C19            2.2335    -2.6487     0.0881 C.3     
  20 C20            1.5023    -1.4263     0.6465 C.3     
  21 C21           -4.1135     1.4966     3.4939 C.2     
  22 O22           -4.3212     2.5939     3.9752 O.2     
  23 N23           -5.1474     0.6857     3.1939 N.am    
  24 C24           -6.5214     1.1262     3.4476 C.3     
  25 C25           -7.4817     0.0435     3.0274 C.2     
  26 C26           -6.6976     1.4130     4.9401 C.3     
  27 C27           -6.8052     2.3986     2.6468 C.3     
  28 C28           -8.0598    -1.7686     1.6050 C.ar    
  29 O29           -8.5042    -0.1369     3.6541 O.2     
  30 C30           -9.4342    -1.6242     1.7693 C.ar    
  31 C31          -10.2826    -2.6500     1.4204 C.ar    
  32 C32           -9.7611    -3.8401     0.8989 C.ar    
  33 C33           -8.3777    -3.9808     0.7350 C.ar    
  34 C34           -7.5370    -2.9499     1.0871 C.ar    
  35 C35          -10.6629    -4.9385     0.5254 C.2     
  36 C36          -11.8313    -4.6709    -0.0979 C.2     
  37 N37           -7.2042    -0.7243     1.9550 N.am    
  38 C38          -12.0266    -3.4171    -0.7303 C.2     
  39 O39          -11.1026    -2.6310    -0.8206 O.2     
  40 O40          -13.2372    -3.0957    -1.2319 O.3     
  41 H41           -1.0486    -1.6101     2.0145 H       
  42 H42           -3.3268    -0.8581     2.4446 H       
  43 H43           -1.8469     2.8671     3.9815 H       
  44 H44            1.0218     2.9448     3.8759 H       
  45 H45            4.2270    -0.4952     3.8912 H       
  46 H46            6.4923     0.7978     3.6487 H       
  47 H47            3.4671     3.5031     2.4200 H       
  48 H48            3.0579    -0.9586     2.0615 H       
  49 H49            2.0365    -2.1697     3.9691 H       
  50 H50            0.6197    -2.5580     2.9640 H       
  51 H51            3.4968    -3.3969     2.3848 H       
  52 H52            2.2157    -4.4549     3.0233 H       
  53 H53            2.4622    -4.7355     0.5719 H       
  54 H54            0.8683    -4.0563     0.9801 H       
  55 H55            3.3064    -2.4570     0.0777 H       
  56 H56            1.8897    -2.8453    -0.9274 H       
  57 H57            0.4294    -1.6181     0.6569 H       
  58 H58            1.7105    -0.5601     0.0184 H       
  59 H59           -4.9818    -0.1895     2.8100 H       
  60 H60           -6.0030     2.1961     5.2441 H       
  61 H61           -7.7198     1.7407     5.1289 H       
  62 H62           -6.4954     0.5065     5.5107 H       
  63 H63           -6.6796     2.1943     1.5835 H       
  64 H64           -7.8274     2.7263     2.8356 H       
  65 H65           -6.1106     3.1817     2.9508 H       
  66 H66           -9.8356    -0.7058     2.1716 H       
  67 H67          -11.3490    -2.5373     1.5489 H       
  68 H68           -7.9711    -4.8972     0.3334 H       
  69 H69           -6.4698    -3.0573     0.9606 H       
  70 H70          -10.3916    -5.9597     0.7490 H       
  71 H71          -12.6166    -5.4121    -0.1144 H       
  72 H72           -6.4095    -0.5506     1.4267 H       
  73 H73          -13.2730    -2.2214    -1.6434 H       
@<TRIPOS>BOND
   1    1    2 ar
   2    1    7 1
   3    1    6 ar
   4    2    3 ar
   5    2    9 1
   6    3    4 ar
   7    3   41 1
   8    4    5 ar
   9    4   42 1
  10    5    6 ar
  11    5   21 1
  12    6   43 1
  13    7    8 1
  14    7   44 1
  15    8    9 2
  16    8   10 1
  17    9   15 1
  18   10   11 1
  19   10   14 2
  20   11   12 2
  21   11   45 1
  22   12   13 1
  23   12   46 1
  24   13   14 1
  25   14   47 1
  26   15   16 1
  27   15   20 1
  28   15   48 1
  29   16   17 1
  30   16   49 1
  31   16   50 1
  32   17   18 1
  33   17   51 1
  34   17   52 1
  35   18   19 1
  36   18   53 1
  37   18   54 1
  38   19   20 1
  39   19   55 1
  40   19   56 1
  41   20   57 1
  42   20   58 1
  43   21   22 2
  44   21   23 am
  45   23   24 1
  46   23   59 1
  47   24   25 1
  48   24   26 1
  49   24   27 1
  50   25   29 2
  51   25   37 am
  52   26   60 1
  53   26   61 1
  54   26   62 1
  55   27   63 1
  56   27   64 1
  57   27   65 1
  58   28   30 ar
  59   28   34 ar
  60   28   37 1
  61   30   31 ar
  62   30   66 1
  63   31   32 ar
  64   31   67 1
  65   32   33 ar
  66   32   35 1
  67   33   34 ar
  68   33   68 1
  69   34   69 1
  70   35   36 2
  71   35   70 1
  72   36   38 1
  73   36   71 1
  74   37   72 1
  75   38   39 2
  76   38   40 1
  77   40   73 1

#	End of record

