#	Name: ASD01915708
#	Creating user name:	WinNT
#	Creation time:	15. 06. 2019 20:06

#	Modifying user name:	WinNT
#	Modification time:	15. 06. 2019 20:06

#	Program:	/corina/corina34_cracker 3.40 0067  02.08.2006

@<TRIPOS>MOLECULE
ASD01915708
  42   45    0    0    0
SMALL
NO_CHARGES


@<TRIPOS>ATOM
   1 C1            -0.0166     1.3728     0.0096 C.2     
   2 N2             0.0021    -0.0041     0.0020 N.pl3   
   3 C3            -1.2433    -0.7807    -0.0179 C.3     
   4 C4            -2.3411     0.0068     0.6953 C.3     
   5 N5            -2.4043     1.3989     0.2636 N.am    
   6 C6            -1.2811     2.1228     0.0392 C.2     
   7 C7             1.2846     1.7904    -0.0006 C.2     
   8 C8             2.0437     0.6125    -0.0024 C.2     
   9 N9             1.2133    -0.4042     0.0045 N.2     
  10 C10            3.5483     0.5278    -0.0107 C.3     
  11 O11            4.0996     1.8461    -0.0166 O.3     
  12 C12            5.4525     1.9480    -0.0244 C.ar    
  13 O13           -1.3167     3.3270    -0.1276 O.2     
  14 N14            6.1920     0.8513    -0.0263 N.ar    
  15 C15            6.0476     3.2027    -0.0362 C.ar    
  16 C16            7.4289     3.2929    -0.0441 C.ar    
  17 C17            8.1689     2.1189    -0.0400 C.ar    
  18 C18            7.5102     0.9052    -0.0338 C.ar    
  19 C19           -3.6446     1.9960     0.0782 C.ar    
  20 N20           -3.7001     3.2597    -0.3138 N.ar    
  21 N21           -4.7406     1.2858     0.2925 N.ar    
  22 C22           -5.9416     1.8204     0.1259 C.ar    
  23 C23           -6.0438     3.1396    -0.2779 C.ar    
  24 C24           -4.8687     3.8599    -0.5006 C.ar    
  25 F25           -7.2524     3.7159    -0.4574 F       
  26 O26           -4.9209     5.1554    -0.8967 O.3     
  27 C27           -3.6736     5.8214    -1.1030 C.3     
  28 H28           -1.5404    -0.9656    -1.0502 H       
  29 H29           -1.0875    -1.7313     0.4922 H       
  30 H30           -3.3017    -0.4679     0.4953 H       
  31 H31           -2.1537    -0.0208     1.7688 H       
  32 H32            1.6488     2.8072    -0.0061 H       
  33 H33            3.8872    -0.0038     0.8785 H       
  34 H34            3.8771    -0.0076    -0.9014 H       
  35 H35            5.4409     4.0962    -0.0394 H       
  36 H36            7.9195     4.2550    -0.0536 H       
  37 H37            9.2483     2.1540    -0.0462 H       
  38 H38            8.0814    -0.0114    -0.0306 H       
  39 H39           -6.8303     1.2328     0.3029 H       
  40 H40           -3.1074     5.3014    -1.8757 H       
  41 H41           -3.8579     6.8489    -1.4169 H       
  42 H42           -3.1040     5.8221    -0.1736 H       
@<TRIPOS>BOND
   1    1    2 1
   2    1    7 2
   3    1    6 1
   4    2    3 1
   5    2    9 1
   6    3    4 1
   7    3   28 1
   8    3   29 1
   9    4    5 1
  10    4   30 1
  11    4   31 1
  12    5    6 am
  13    5   19 1
  14    6   13 2
  15    7    8 1
  16    7   32 1
  17    8    9 2
  18    8   10 1
  19   10   11 1
  20   10   33 1
  21   10   34 1
  22   11   12 1
  23   12   14 ar
  24   12   15 ar
  25   14   18 ar
  26   15   16 ar
  27   15   35 1
  28   16   17 ar
  29   16   36 1
  30   17   18 ar
  31   17   37 1
  32   18   38 1
  33   19   20 ar
  34   19   21 ar
  35   20   24 ar
  36   21   22 ar
  37   22   23 ar
  38   22   39 1
  39   23   24 ar
  40   23   25 1
  41   24   26 1
  42   26   27 1
  43   27   40 1
  44   27   41 1
  45   27   42 1

#	End of record

