#	Name: ASD00110009
#	Creating user name:	WinNT
#	Creation time:	15. 06. 2019 18:30

#	Modifying user name:	WinNT
#	Modification time:	15. 06. 2019 18:30

#	Program:	/corina/corina34_cracker 3.40 0067  02.08.2006

@<TRIPOS>MOLECULE
ASD00110009
  82   83    0    0    0
SMALL
NO_CHARGES


@<TRIPOS>ATOM
   1 N1            -0.0178     1.4642     0.0101 N.3     
   2 C2             0.0021    -0.0041     0.0020 C.3     
   3 C3             0.6797    -0.4993    -1.2777 C.3     
   4 C4             2.1079     0.0494    -1.3384 C.3     
   5 C5             2.0615     1.5788    -1.2797 C.3     
   6 C6             1.3439     2.0138     0.0000 C.3     
   7 C7             1.2785     3.5185     0.0523 C.2     
   8 N8             2.3532     4.2262     0.4532 N.am    
   9 O9             0.2588     4.0926    -0.2663 O.2     
  10 C10            2.2896     5.6889     0.5040 C.3     
  11 C11            3.3077     6.2086     1.5210 C.3     
  12 C12            2.6111     6.2617    -0.8778 C.3     
  13 C13            1.5930     5.7420    -1.8948 C.3     
  14 C14            3.2413     7.7362     1.5741 C.3     
  15 C15            2.9862     5.6358     2.9029 C.3     
  16 C16            4.0044     6.1555     3.9198 C.3     
  17 C17            3.9380     7.6831     3.9729 C.3     
  18 C18            4.2594     8.2559     2.5911 C.3     
  19 S19            5.9264     7.7400     2.0956 S.3     
  20 O20            4.8889     8.1685     4.9228 O.3     
  21 O21            3.7041     5.6205     5.2104 O.3     
  22 O22            1.6730     6.0422     3.2932 O.3     
  23 Cl23           4.2680     5.7489    -1.3703 Cl      
  24 C24            6.9878     8.5649     3.3136 C.3     
  25 C25            2.8809    -0.4635    -0.1956 C.1     
  26 C26            3.4975    -0.8726     0.7159 C.1     
  27 C27            4.2706    -1.3856     1.8587 C.3     
  28 C28            5.6973    -0.8365     1.7969 C.3     
  29 C29            6.5009    -1.3697     2.9847 C.3     
  30 C30            7.9276    -0.8207     2.9229 C.3     
  31 C31            8.7312    -1.3538     4.1107 C.3     
  32 C32           10.1579    -0.8048     4.0489 C.3     
  33 C33           10.9615    -1.3380     5.2368 C.3     
  34 C34           12.3882    -0.7889     5.1749 C.3     
  35 C35           13.1918    -1.3221     6.3628 C.3     
  36 H36           -0.5582     1.8228    -0.7629 H       
  37 H37            0.5557    -0.3645     0.8690 H       
  38 H38           -1.0198    -0.3814     0.0413 H       
  39 H39            0.7083    -1.5890    -1.2760 H       
  40 H40            0.1187    -0.1507    -2.1448 H       
  41 H41            2.5797    -0.2653    -2.2692 H       
  42 H42            3.0774     1.9739    -1.2795 H       
  43 H43            1.5223     1.9601    -2.1469 H       
  44 H44            1.8912     1.6439     0.8670 H       
  45 H45            3.1687     3.7670     0.7080 H       
  46 H46            1.2879     5.9989     0.8018 H       
  47 H47            4.3094     5.8986     1.2233 H       
  48 H48            2.5638     7.3500    -0.8400 H       
  49 H49            0.5913     6.0520    -1.5970 H       
  50 H50            1.8220     6.1501    -2.8792 H       
  51 H51            1.6403     4.6537    -1.9326 H       
  52 H52            3.4704     8.1443     0.5897 H       
  53 H53            2.2397     8.0463     1.8719 H       
  54 H54            3.0335     4.5475     2.8650 H       
  55 H55            5.0060     5.8455     3.6221 H       
  56 H56            2.9363     7.9932     4.2707 H       
  57 H57            4.2121     9.3443     2.6289 H       
  58 H58            4.7459     7.8453     5.8228 H       
  59 H59            4.3106     5.9085     5.9064 H       
  60 H60            1.4017     5.7145     4.1616 H       
  61 H61            6.7243     8.2244     4.3150 H       
  62 H62            8.0308     8.3222     3.1101 H       
  63 H63            6.8462     9.6436     3.2476 H       
  64 H64            3.7989    -1.0676     2.7885 H       
  65 H65            4.2983    -2.4745     1.8192 H       
  66 H66            6.1690    -1.1545     0.8671 H       
  67 H67            5.6696     0.2524     1.8364 H       
  68 H68            6.0292    -1.0517     3.9145 H       
  69 H69            6.5286    -2.4586     2.9452 H       
  70 H70            8.3993    -1.1386     1.9931 H       
  71 H71            7.8999     0.2683     2.9624 H       
  72 H72            8.2595    -1.0358     5.0405 H       
  73 H73            8.7588    -2.4428     4.0712 H       
  74 H74           10.6296    -1.1228     3.1191 H       
  75 H75           10.1302     0.2841     4.0884 H       
  76 H76           10.4898    -1.0200     6.1665 H       
  77 H77           10.9891    -2.4269     5.1973 H       
  78 H78           12.8599    -1.1069     4.2451 H       
  79 H79           12.3605     0.3000     5.2144 H       
  80 H80           12.7201    -1.0041     7.2926 H       
  81 H81           13.2194    -2.4110     6.3233 H       
  82 H82           14.2082    -0.9310     6.3187 H       
@<TRIPOS>BOND
   1    1    2 1
   2    1    6 1
   3    1   36 1
   4    2    3 1
   5    2   37 1
   6    2   38 1
   7    3    4 1
   8    3   39 1
   9    3   40 1
  10    4    5 1
  11    4   25 1
  12    4   41 1
  13    5    6 1
  14    5   42 1
  15    5   43 1
  16    6    7 1
  17    6   44 1
  18    7    8 am
  19    7    9 2
  20    8   10 1
  21    8   45 1
  22   10   12 1
  23   10   11 1
  24   10   46 1
  25   11   15 1
  26   11   14 1
  27   11   47 1
  28   12   13 1
  29   12   23 1
  30   12   48 1
  31   13   49 1
  32   13   50 1
  33   13   51 1
  34   14   18 1
  35   14   52 1
  36   14   53 1
  37   15   16 1
  38   15   22 1
  39   15   54 1
  40   16   17 1
  41   16   21 1
  42   16   55 1
  43   17   18 1
  44   17   20 1
  45   17   56 1
  46   18   19 1
  47   18   57 1
  48   19   24 1
  49   20   58 1
  50   21   59 1
  51   22   60 1
  52   24   61 1
  53   24   62 1
  54   24   63 1
  55   25   26 3
  56   26   27 1
  57   27   28 1
  58   27   64 1
  59   27   65 1
  60   28   29 1
  61   28   66 1
  62   28   67 1
  63   29   30 1
  64   29   68 1
  65   29   69 1
  66   30   31 1
  67   30   70 1
  68   30   71 1
  69   31   32 1
  70   31   72 1
  71   31   73 1
  72   32   33 1
  73   32   74 1
  74   32   75 1
  75   33   34 1
  76   33   76 1
  77   33   77 1
  78   34   35 1
  79   34   78 1
  80   34   79 1
  81   35   80 1
  82   35   81 1
  83   35   82 1

#	End of record

