#	Name: ASD01910071
#	Creating user name:	WinNT
#	Creation time:	15. 06. 2019 19:55

#	Modifying user name:	WinNT
#	Modification time:	15. 06. 2019 19:55

#	Program:	/corina/corina34_cracker 3.40 0067  02.08.2006

@<TRIPOS>MOLECULE
ASD01910071
  45   48    0    0    0
SMALL
NO_CHARGES


@<TRIPOS>ATOM
   1 C1             0.0011     1.1850     0.3625 C.2     
   2 N2             0.0438     0.0954    -0.3568 N.2     
   3 N3             1.3810    -0.2292    -0.6131 N.pl3   
   4 C4             2.1659     0.7098    -0.0193 C.2     
   5 C5             1.3214     1.6126     0.6023 C.2     
   6 C6             1.8327    -1.3305    -1.3525 C.ar    
   7 N7             3.5552     0.7537    -0.0337 N.am    
   8 C8             4.2656    -0.1661     0.6488 C.2     
   9 C9             5.7403    -0.1818     0.5520 C.ar    
  10 O10            3.6933    -0.9827     1.3442 O.2     
  11 C11            1.2288    -2.5706    -1.1928 C.ar    
  12 C12            1.6760    -3.6541    -1.9234 C.ar    
  13 C13            2.7242    -3.5049    -2.8129 C.ar    
  14 C14            3.3276    -2.2711    -2.9742 C.ar    
  15 C15            2.8812    -1.1826    -2.2507 C.ar    
  16 C16            6.4791    -1.1331     1.2576 C.ar    
  17 C17            7.8553    -1.1425     1.1624 C.ar    
  18 C18            8.5034    -0.2119     0.3697 C.ar    
  19 C19            7.7772     0.7339    -0.3320 C.ar    
  20 C20            6.4002     0.7509    -0.2501 C.ar    
  21 C21            1.7307     2.8090     1.3770 C.ar    
  22 C22            1.1545     4.0489     1.1058 C.ar    
  23 C23            1.5393     5.1588     1.8300 C.ar    
  24 C24            2.4953     5.0427     2.8231 C.ar    
  25 C25            3.0705     3.8148     3.0966 C.ar    
  26 C26            2.6890     2.6968     2.3831 C.ar    
  27 N27            9.9803    -0.2280     0.2723 N.pl3   
  28 O28           10.6223    -1.0592     0.8892 O.2     
  29 O29           10.5536     0.5899    -0.4247 O.2     
  30 H30           -0.8951     1.6772     0.7104 H       
  31 H31            4.0134     1.4463    -0.5350 H       
  32 H32            0.4106    -2.6879    -0.4977 H       
  33 H33            1.2067    -4.6189    -1.7996 H       
  34 H34            3.0725    -4.3537    -3.3825 H       
  35 H35            4.1463    -2.1578    -3.6694 H       
  36 H36            3.3527    -0.2192    -2.3773 H       
  37 H37            5.9745    -1.8598     1.8770 H       
  38 H38            8.4281    -1.8777     1.7081 H       
  39 H39            8.2893     1.4580    -0.9484 H       
  40 H40            5.8345     1.4895    -0.7986 H       
  41 H41            0.4086     4.1408     0.3302 H       
  42 H42            1.0935     6.1200     1.6207 H       
  43 H43            2.7939     5.9142     3.3868 H       
  44 H44            3.8164     3.7300     3.8730 H       
  45 H45            3.1388     1.7386     2.5974 H       
@<TRIPOS>BOND
   1    1    2 2
   2    1    5 1
   3    1   30 1
   4    2    3 1
   5    3    4 1
   6    3    6 1
   7    4    5 2
   8    4    7 1
   9    5   21 1
  10    6   11 ar
  11    6   15 ar
  12    7    8 am
  13    7   31 1
  14    8    9 1
  15    8   10 2
  16    9   16 ar
  17    9   20 ar
  18   11   12 ar
  19   11   32 1
  20   12   13 ar
  21   12   33 1
  22   13   14 ar
  23   13   34 1
  24   14   15 ar
  25   14   35 1
  26   15   36 1
  27   16   17 ar
  28   16   37 1
  29   17   18 ar
  30   17   38 1
  31   18   19 ar
  32   18   27 1
  33   19   20 ar
  34   19   39 1
  35   20   40 1
  36   21   22 ar
  37   21   26 ar
  38   22   23 ar
  39   22   41 1
  40   23   24 ar
  41   23   42 1
  42   24   25 ar
  43   24   43 1
  44   25   26 ar
  45   25   44 1
  46   26   45 1
  47   27   28 2
  48   27   29 2

#	End of record

