#	Name: ASD02560040
#	Creating user name:	WinNT
#	Creation time:	15. 06. 2019 20:24

#	Modifying user name:	WinNT
#	Modification time:	15. 06. 2019 20:24

#	Program:	/corina/corina34_cracker 3.40 0067  02.08.2006

@<TRIPOS>MOLECULE
ASD02560040
  34   35    0    0    0
SMALL
NO_CHARGES


@<TRIPOS>ATOM
   1 C1            -1.7645     1.3210     1.1939 C.2     
   2 C2            -1.7224    -0.0272     1.2134 C.2     
   3 N3            -1.1795    -0.7263     0.1791 N.am    
   4 C4            -0.6686    -0.0961    -0.8947 C.2     
   5 C5            -0.6881     1.3050    -0.9637 C.2     
   6 C6            -1.2459     2.0236     0.0858 C.2     
   7 C7            -2.3697     2.0746     2.3502 C.3     
   8 S8            -1.2915     3.7845     0.0408 S.3     
   9 C9            -3.0138     4.1332    -0.0896 C.ar    
  10 N10           -0.1560     1.9718    -2.0817 N.pl3   
  11 O11           -0.1865    -0.7453    -1.8109 O.2     
  12 C12           -3.4669     5.4444    -0.0095 C.ar    
  13 C13           -4.8172     5.7140    -0.1126 C.ar    
  14 C14           -5.7184     4.6808    -0.2948 C.ar    
  15 C15           -5.2710     3.3746    -0.3749 C.ar    
  16 C16           -3.9216     3.0981    -0.2784 C.ar    
  17 C17           -6.2569     2.2522    -0.5729 C.3     
  18 C18           -5.3096     7.1356    -0.0259 C.3     
  19 H19           -2.1249    -0.5598     2.0623 H       
  20 H20           -1.1603    -1.6954     0.2169 H       
  21 H21           -2.7176     1.3670     3.1028 H       
  22 H22           -1.6186     2.7315     2.7887 H       
  23 H23           -3.2108     2.6703     1.9953 H       
  24 H24            0.2937     1.4682    -2.7781 H       
  25 H25           -0.2388     2.9354    -2.1565 H       
  26 H26           -2.7638     6.2516     0.1334 H       
  27 H27           -6.7741     4.8945    -0.3743 H       
  28 H28           -3.5729     2.0779    -0.3410 H       
  29 H29           -6.3317     2.0174    -1.6347 H       
  30 H30           -5.9179     1.3706    -0.0289 H       
  31 H31           -7.2342     2.5567    -0.1984 H       
  32 H32           -5.3315     7.5740    -1.0236 H       
  33 H33           -6.3137     7.1472     0.3981 H       
  34 H34           -4.6398     7.7140     0.6104 H       
@<TRIPOS>BOND
   1    1    2 2
   2    1    7 1
   3    1    6 1
   4    2    3 1
   5    2   19 1
   6    3    4 am
   7    3   20 1
   8    4    5 1
   9    4   11 2
  10    5    6 2
  11    5   10 1
  12    6    8 1
  13    7   21 1
  14    7   22 1
  15    7   23 1
  16    8    9 1
  17    9   12 ar
  18    9   16 ar
  19   10   24 1
  20   10   25 1
  21   12   13 ar
  22   12   26 1
  23   13   14 ar
  24   13   18 1
  25   14   15 ar
  26   14   27 1
  27   15   16 ar
  28   15   17 1
  29   16   28 1
  30   17   29 1
  31   17   30 1
  32   17   31 1
  33   18   32 1
  34   18   33 1
  35   18   34 1

#	End of record

