#	Name: ASD01882788
#	Creating user name:	WinNT
#	Creation time:	15. 06. 2019 19:45

#	Modifying user name:	WinNT
#	Modification time:	15. 06. 2019 19:45

#	Program:	/corina/corina34_cracker 3.40 0067  02.08.2006

@<TRIPOS>MOLECULE
ASD01882788
  41   44    0    0    0
SMALL
NO_CHARGES


@<TRIPOS>ATOM
   1 C1            -0.1973     1.6051    -0.0778 C.2     
   2 C2             0.0034     0.2115    -0.1004 C.2     
   3 C3            -1.0679    -0.6161     0.0327 C.2     
   4 C4            -2.3541    -0.0719     0.1903 C.2     
   5 C5            -2.5313     1.2658     0.2096 C.2     
   6 N6            -1.4669     2.1073     0.0711 N.pl3   
   7 C7            -0.8763    -2.1107     0.0109 C.3     
   8 O8            -1.4652    -2.6835     1.1801 O.3     
   9 C9             1.3889    -0.3564    -0.2707 C.3     
  10 C10           -1.0013    -3.8991     1.5723 C.ar    
  11 C11           -1.5468    -2.6926    -1.2352 C.3     
  12 N12            0.6160     2.6436    -0.1796 N.2     
  13 N13           -0.0653     3.7321    -0.0973 N.2     
  14 C14           -1.3360     3.4615     0.0548 C.2     
  15 C15           -2.4516     4.4662     0.1853 C.3     
  16 F16            1.4126    -1.2018    -1.3851 F       
  17 F17            2.3011     0.6876    -0.4578 F       
  18 F18            1.7391    -1.0823     0.8728 F       
  19 C19           -2.3880     5.4437     1.3606 C.3     
  20 C20           -2.1100     5.9371    -0.0607 C.3     
  21 C21           -1.5580    -4.5323     2.6737 C.ar    
  22 C22           -1.0846    -5.7701     3.0719 C.ar    
  23 C23           -0.0554    -6.3764     2.3718 C.ar    
  24 C24            0.5016    -5.7452     1.2725 C.ar    
  25 C25            0.0256    -4.5104     0.8681 C.ar    
  26 F26            1.5064    -6.3377     0.5910 F       
  27 F27           -1.6267    -6.3871     4.1446 F       
  28 H28           -3.2055    -0.7280     0.2961 H       
  29 H29           -3.5242     1.6731     0.3309 H       
  30 H30            0.1890    -2.3402    -0.0090 H       
  31 H31           -2.6122    -2.4631    -1.2152 H       
  32 H32           -1.0976    -2.2557    -2.1271 H       
  33 H33           -1.4083    -3.7737    -1.2510 H       
  34 H34           -3.4363     4.1187    -0.1275 H       
  35 H35           -3.3308     5.7396     1.8207 H       
  36 H36           -1.5392     5.3602     2.0393 H       
  37 H37           -1.0784     6.1781    -0.3171 H       
  38 H38           -2.8700     6.5576    -0.5357 H       
  39 H39           -2.3604    -4.0593     3.2204 H       
  40 H40            0.3136    -7.3423     2.6837 H       
  41 H41            0.4568    -4.0206     0.0075 H       
@<TRIPOS>BOND
   1    1    2 1
   2    1   12 2
   3    1    6 1
   4    2    9 1
   5    2    3 2
   6    3    4 1
   7    3    7 1
   8    4    5 2
   9    4   28 1
  10    5    6 1
  11    5   29 1
  12    6   14 1
  13    7    8 1
  14    7   11 1
  15    7   30 1
  16    8   10 1
  17    9   16 1
  18    9   17 1
  19    9   18 1
  20   10   21 ar
  21   10   25 ar
  22   11   31 1
  23   11   32 1
  24   11   33 1
  25   12   13 1
  26   13   14 2
  27   14   15 1
  28   15   19 1
  29   15   20 1
  30   15   34 1
  31   19   20 1
  32   19   35 1
  33   19   36 1
  34   20   37 1
  35   20   38 1
  36   21   22 ar
  37   21   39 1
  38   22   23 ar
  39   22   27 1
  40   23   24 ar
  41   23   40 1
  42   24   25 ar
  43   24   26 1
  44   25   41 1

#	End of record

