#	Name: ASD00431294
#	Creating user name:	WinNT
#	Creation time:	15. 06. 2019 18:35

#	Modifying user name:	WinNT
#	Modification time:	15. 06. 2019 18:35

#	Program:	/corina/corina34_cracker 3.40 0067  02.08.2006

@<TRIPOS>MOLECULE
ASD00431294
  19   20    0    0    0
SMALL
NO_CHARGES


@<TRIPOS>ATOM
   1 C1            -0.0213     1.3729    -0.1276 C.ar    
   2 C2             0.0038    -0.0125    -0.1896 C.ar    
   3 C3             1.2106    -0.6835    -0.1584 C.ar    
   4 C4             2.3977     0.0283    -0.0655 C.ar    
   5 C5             2.3725     1.4140    -0.0040 C.ar    
   6 C6             1.1655     2.0847    -0.0347 C.ar    
   7 O7            -1.2093     2.0336    -0.1636 O.3     
   8 O8             3.5858    -0.6321    -0.0344 O.3     
   9 S9             4.9197    -3.0196    -0.0543 S.3     
  10 C10            3.5601    -1.9841     0.0639 C.2     
  11 N11            2.5018    -2.7077     0.2634 N.2     
  12 N12            2.6508    -3.9596     0.3304 N.2     
  13 C13            3.8589    -4.4073     0.1922 C.2     
  14 Br14           4.3892    -6.2216     0.2446 Br      
  15 H15           -0.9204    -0.5667    -0.2619 H       
  16 H16            1.2301    -1.7623    -0.2060 H       
  17 H17            3.2966     1.9683     0.0683 H       
  18 H18            1.1459     3.1635     0.0136 H       
  19 H19           -1.6020     2.1844     0.7071 H       
@<TRIPOS>BOND
   1    1    2 ar
   2    1    6 ar
   3    1    7 1
   4    2    3 ar
   5    2   15 1
   6    3    4 ar
   7    3   16 1
   8    4    5 ar
   9    4    8 1
  10    5    6 ar
  11    5   17 1
  12    6   18 1
  13    7   19 1
  14    8   10 1
  15    9   10 1
  16    9   13 1
  17   10   11 2
  18   11   12 1
  19   12   13 2
  20   13   14 1

#	End of record

