#	Name: ASD03320019
#	Creating user name:	WinNT
#	Creation time:	15. 06. 2019 20:35

#	Modifying user name:	WinNT
#	Modification time:	15. 06. 2019 20:35

#	Program:	/corina/corina34_cracker 3.40 0067  02.08.2006

@<TRIPOS>MOLECULE
ASD03320019
  72   76    0    0    0
SMALL
NO_CHARGES


@<TRIPOS>ATOM
   1 C1            -0.1482     0.5456     0.7616 C.ar    
   2 C2            -0.0765    -0.8373     0.5955 C.ar    
   3 C3             1.0027     1.3022     0.7459 C.ar    
   4 C4             2.2416     0.6841     0.5634 C.ar    
   5 C5             2.3123    -0.7007     0.3971 C.ar    
   6 C6             1.1603    -1.4555     0.4132 C.ar    
   7 C7             3.4773     1.4952     0.5459 C.2     
   8 N8             3.5036     2.6690    -0.1159 N.am    
   9 O9             4.4698     1.1035     1.1283 O.2     
  10 C10           -1.3164    -1.6511     0.6131 C.ar    
  11 C11           -1.2577    -3.0325     0.4484 C.ar    
  12 C12           -2.4532    -3.7510     0.4735 C.ar    
  13 N13           -3.5964    -3.0952     0.6526 N.ar    
  14 C14           -3.6097    -1.7860     0.8049 C.ar    
  15 N15           -2.5043    -1.0716     0.7927 N.ar    
  16 N16           -2.4497    -5.1285     0.3137 N.pl3   
  17 C17           -3.6374    -5.8516     0.4567 C.ar    
  18 C18           -3.8348    -7.0171    -0.2729 C.ar    
  19 C19           -5.0092    -7.7294    -0.1289 C.ar    
  20 C20           -5.9881    -7.2834     0.7401 C.ar    
  21 C21           -5.7949    -6.1233     1.4676 C.ar    
  22 C22           -4.6203    -5.4095     1.3330 C.ar    
  23 C23            4.6857     3.5396    -0.0480 C.3     
  24 C24            5.1641     3.8288    -1.4762 C.3     
  25 N25            4.0114     4.2608    -2.2791 N.am    
  26 C26            2.8294     3.3901    -2.3470 C.3     
  27 C27            2.3532     3.0983    -0.9234 C.3     
  28 C28            4.0377     5.4346    -2.9410 C.2     
  29 C29            5.2744     6.2432    -2.9623 C.ar    
  30 O30            3.0442     5.8280    -3.5204 O.2     
  31 C31            5.2350     7.5950    -2.6123 C.ar    
  32 C32            6.3955     8.3443    -2.6342 C.ar    
  33 C33            7.5930     7.7587    -3.0014 C.ar    
  34 C34            7.6382     6.4197    -3.3496 C.ar    
  35 C35            6.4887     5.6582    -3.3267 C.ar    
  36 Cl36           3.7319     8.3315    -2.1517 Cl      
  37 C37           -7.2685    -8.0631     0.8943 C.3     
  38 C38           -6.9493    -9.4753     1.3889 C.3     
  39 C39           -8.1745    -7.3606     1.9074 C.3     
  40 C40           -7.9816    -8.1450    -0.4569 C.3     
  41 H41           -1.1068     1.0240     0.8982 H       
  42 H42            0.9469     2.3731     0.8742 H       
  43 H43            3.2699    -1.1795     0.2556 H       
  44 H44            1.2148    -2.5264     0.2846 H       
  45 H45           -0.3121    -3.5341     0.3046 H       
  46 H46           -4.5556    -1.2849     0.9483 H       
  47 H47           -1.6232    -5.5902     0.1027 H       
  48 H48           -3.0710    -7.3656    -0.9522 H       
  49 H49           -5.1633    -8.6356    -0.6958 H       
  50 H50           -6.5617    -5.7774     2.1449 H       
  51 H51           -4.4701    -4.5036     1.9014 H       
  52 H52            4.4232     4.4750     0.4463 H       
  53 H53            5.4776     3.0385     0.5086 H       
  54 H54            5.9140     4.6196    -1.4577 H       
  55 H55            5.5928     2.9247    -1.9085 H       
  56 H56            2.0375     3.8912    -2.9037 H       
  57 H57            3.0919     2.4548    -2.8413 H       
  58 H58            1.6034     2.3075    -0.9433 H       
  59 H59            1.9246     4.0014    -0.4887 H       
  60 H60            6.3672     9.3897    -2.3644 H       
  61 H61            8.4974     8.3488    -3.0169 H       
  62 H62            8.5770     5.9691    -3.6357 H       
  63 H63            6.5261     4.6137    -3.5988 H       
  64 H64           -6.4412    -9.4170     2.3515 H       
  65 H65           -7.8754   -10.0392     1.5004 H       
  66 H66           -6.3038    -9.9758     0.6671 H       
  67 H67           -8.4020    -6.3545     1.5550 H       
  68 H68           -9.1006    -7.9245     2.0189 H       
  69 H69           -7.6665    -7.3022     2.8700 H       
  70 H70           -7.3361    -8.6455    -1.1786 H       
  71 H71           -8.9077    -8.7089    -0.3454 H       
  72 H72           -8.2090    -7.1389    -0.8093 H       
@<TRIPOS>BOND
   1    1    2 ar
   2    1    3 ar
   3    1   41 1
   4    2   10 1
   5    2    6 ar
   6    3    4 ar
   7    3   42 1
   8    4    5 ar
   9    4    7 1
  10    5    6 ar
  11    5   43 1
  12    6   44 1
  13    7    8 am
  14    7    9 2
  15    8   23 1
  16    8   27 1
  17   10   11 ar
  18   10   15 ar
  19   11   12 ar
  20   11   45 1
  21   12   13 ar
  22   12   16 1
  23   13   14 ar
  24   14   15 ar
  25   14   46 1
  26   16   17 1
  27   16   47 1
  28   17   18 ar
  29   17   22 ar
  30   18   19 ar
  31   18   48 1
  32   19   20 ar
  33   19   49 1
  34   20   21 ar
  35   20   37 1
  36   21   22 ar
  37   21   50 1
  38   22   51 1
  39   23   24 1
  40   23   52 1
  41   23   53 1
  42   24   25 1
  43   24   54 1
  44   24   55 1
  45   25   26 1
  46   25   28 am
  47   26   27 1
  48   26   56 1
  49   26   57 1
  50   27   58 1
  51   27   59 1
  52   28   29 1
  53   28   30 2
  54   29   31 ar
  55   29   35 ar
  56   31   32 ar
  57   31   36 1
  58   32   33 ar
  59   32   60 1
  60   33   34 ar
  61   33   61 1
  62   34   35 ar
  63   34   62 1
  64   35   63 1
  65   37   38 1
  66   37   39 1
  67   37   40 1
  68   38   64 1
  69   38   65 1
  70   38   66 1
  71   39   67 1
  72   39   68 1
  73   39   69 1
  74   40   70 1
  75   40   71 1
  76   40   72 1

#	End of record

