#	Name: ASD01884606
#	Creating user name:	WinNT
#	Creation time:	15. 06. 2019 19:48

#	Modifying user name:	WinNT
#	Modification time:	15. 06. 2019 19:48

#	Program:	/corina/corina34_cracker 3.40 0067  02.08.2006

@<TRIPOS>MOLECULE
ASD01884606
  32   34    0    0    0
SMALL
NO_CHARGES


@<TRIPOS>ATOM
   1 C1            -0.0164     1.3570     0.0095 C.2     
   2 C2             0.0021    -0.0041     0.0020 C.2     
   3 C3             1.2456    -0.6757    -0.0135 C.2     
   4 C4             2.4119     0.0557    -0.0207 C.2     
   5 N5             2.3714     1.4118    -0.0130 N.am    
   6 C6             1.1965     2.0678     0.0017 C.2     
   7 O7             1.1838     3.2883     0.0080 O.2     
   8 C8             3.6235     2.1723    -0.0209 C.3     
   9 C9             1.2935    -2.1542    -0.0214 C.2     
  10 C10            4.0393     2.4407    -1.4443 C.ar    
  11 C11            3.4488     3.4717    -2.1550 C.ar    
  12 C12            3.8313     3.7183    -3.4625 C.ar    
  13 C13            4.8037     2.9337    -4.0576 C.ar    
  14 C14            5.3930     1.9028    -3.3447 C.ar    
  15 C15            5.0141     1.6609    -2.0380 C.ar    
  16 F16            5.1776     3.1729    -5.3336 F       
  17 F17            2.4994     4.2366    -1.5729 F       
  18 S18            1.9208    -3.1430    -1.3338 S.3     
  19 C19            0.8686    -2.9517     0.9781 C.2     
  20 C20            1.0170    -4.3036     0.7400 C.2     
  21 C21            1.5592    -4.6138    -0.4403 C.2     
  22 H22           -0.9570     1.8876     0.0168 H       
  23 H23           -0.9217    -0.5636     0.0082 H       
  24 H24            3.3646    -0.4529    -0.0321 H       
  25 H25            3.4770     3.1188     0.4995 H       
  26 H26            4.4009     1.5974     0.4825 H       
  27 H27            3.3710     4.5222    -4.0177 H       
  28 H28            6.1518     1.2904    -3.8090 H       
  29 H29            5.4742     0.8569    -1.4828 H       
  30 H30            0.4459    -2.5641     1.8932 H       
  31 H31            0.7184    -5.0547     1.4562 H       
  32 H32            1.7480    -5.6171    -0.7927 H       
@<TRIPOS>BOND
   1    1    2 2
   2    1    6 1
   3    1   22 1
   4    2    3 1
   5    2   23 1
   6    3    4 2
   7    3    9 1
   8    4    5 1
   9    4   24 1
  10    5    6 am
  11    5    8 1
  12    6    7 2
  13    8   10 1
  14    8   25 1
  15    8   26 1
  16    9   18 1
  17    9   19 2
  18   10   11 ar
  19   10   15 ar
  20   11   12 ar
  21   11   17 1
  22   12   13 ar
  23   12   27 1
  24   13   14 ar
  25   13   16 1
  26   14   15 ar
  27   14   28 1
  28   15   29 1
  29   18   21 1
  30   19   20 1
  31   19   30 1
  32   20   21 2
  33   20   31 1
  34   21   32 1

#	End of record

