#	Name: ASD01028537
#	Creating user name:	WinNT
#	Creation time:	15. 06. 2019 18:57

#	Modifying user name:	WinNT
#	Modification time:	15. 06. 2019 18:57

#	Program:	/corina/corina34_cracker 3.40 0067  02.08.2006

@<TRIPOS>MOLECULE
ASD01028537
  42   46    0    0    0
SMALL
NO_CHARGES


@<TRIPOS>ATOM
   1 N1            -0.0169     1.3921     0.0097 N.2     
   2 N2             0.0021    -0.0041     0.0020 N.pl3   
   3 C3             1.1071     2.0741     0.0026 C.2     
   4 C4             2.3532     1.4123    -0.0133 C.2     
   5 C5             2.4037     0.0542    -0.0211 C.2     
   6 C6             1.2008    -0.6771    -0.0130 C.2     
   7 N7             0.9145    -1.9687    -0.0178 N.2     
   8 N8            -0.3638    -2.1208    -0.0063 N.2     
   9 C9            -0.9586    -0.9539     0.0061 C.2     
  10 C10           -2.4463    -0.7141     0.0220 C.3     
  11 C11            1.0647     3.5571     0.0110 C.ar    
  12 C12           -2.9284    -0.6428     1.4480 C.ar    
  13 C13           -2.9549     0.5581     2.0891 C.ar    
  14 C14           -3.3466    -1.8057     2.0913 C.ar    
  15 C15           -3.7877    -1.7766     3.3786 C.ar    
  16 C16           -3.8246    -0.5569     4.0762 C.ar    
  17 C17           -3.4039     0.6258     3.4179 C.ar    
  18 N18           -4.2528    -0.4996     5.3414 N.ar    
  19 C19           -4.2900     0.6331     5.9989 C.ar    
  20 C20           -3.8848     1.8362     5.4123 C.ar    
  21 C21           -3.4408     1.8466     4.1162 C.ar    
  22 O22           -3.9367     2.9928     6.1242 O.3     
  23 C23           -0.1601     4.2216     0.0263 C.ar    
  24 C24           -0.1936     5.6013     0.0339 C.ar    
  25 C25            0.9856     6.3244     0.0265 C.ar    
  26 C26            2.2041     5.6700     0.0109 C.ar    
  27 C27            2.2496     4.2906     0.0094 C.ar    
  28 H28            3.2683     1.9860    -0.0197 H       
  29 H29            3.3547    -0.4576    -0.0329 H       
  30 H30           -2.6683     0.2255    -0.4840 H       
  31 H31           -2.9517    -1.5318    -0.4920 H       
  32 H32           -2.6320     1.4535     1.5787 H       
  33 H33           -3.3207    -2.7455     1.5598 H       
  34 H34           -4.1086    -2.6874     3.8622 H       
  35 H35           -4.6429     0.6378     7.0196 H       
  36 H36           -3.1236     2.7654     3.6454 H       
  37 H37           -3.1272     3.1889     6.6155 H       
  38 H38           -1.0814     3.6581     0.0317 H       
  39 H39           -1.1423     6.1174     0.0454 H       
  40 H40            0.9547     7.4040     0.0326 H       
  41 H41            3.1217     6.2395     0.0048 H       
  42 H42            3.2015     3.7807    -0.0024 H       
@<TRIPOS>BOND
   1    1    2 1
   2    1    3 2
   3    2    6 1
   4    2    9 1
   5    3    4 1
   6    3   11 1
   7    4    5 2
   8    4   28 1
   9    5    6 1
  10    5   29 1
  11    6    7 2
  12    7    8 1
  13    8    9 2
  14    9   10 1
  15   10   12 1
  16   10   30 1
  17   10   31 1
  18   11   23 ar
  19   11   27 ar
  20   12   13 ar
  21   12   14 ar
  22   13   17 ar
  23   13   32 1
  24   14   15 ar
  25   14   33 1
  26   15   16 ar
  27   15   34 1
  28   16   17 ar
  29   16   18 ar
  30   17   21 ar
  31   18   19 ar
  32   19   20 ar
  33   19   35 1
  34   20   21 ar
  35   20   22 1
  36   21   36 1
  37   22   37 1
  38   23   24 ar
  39   23   38 1
  40   24   25 ar
  41   24   39 1
  42   25   26 ar
  43   25   40 1
  44   26   27 ar
  45   26   41 1
  46   27   42 1

#	End of record

