#	Name: ASD03730272
#	Creating user name:	WinNT
#	Creation time:	15. 06. 2019 20:44

#	Modifying user name:	WinNT
#	Modification time:	15. 06. 2019 20:44

#	Program:	/corina/corina34_cracker 3.40 0067  02.08.2006

@<TRIPOS>MOLECULE
ASD03730272
  67   72    0    0    0
SMALL
NO_CHARGES


@<TRIPOS>ATOM
   1 O1            -0.4635     1.1441     1.2939 O.3     
   2 C2            -0.3959    -0.2922     1.3671 C.3     
   3 O3             0.6873    -0.6297     0.4809 O.3     
   4 C4             1.5085     0.4614     0.4759 C.ar    
   5 C5             0.7995     1.5524     0.9734 C.ar    
   6 C6             2.8260     0.6135     0.0828 C.ar    
   7 C7             3.4509     1.8534     0.1765 C.ar    
   8 C8             2.7289     2.9389     0.6635 C.ar    
   9 C9             1.4174     2.7884     1.0633 C.ar    
  10 O10            4.7301     2.2104    -0.1342 O.3     
  11 C11            3.6530     4.1260     0.6131 C.3     
  12 C12            4.8002     3.6415    -0.2842 C.3     
  13 N13            3.0838     6.3068     0.9911 N.am    
  14 C14            2.9813     5.3460     0.0511 C.2     
  15 C15            4.1387     4.5311     1.9728 C.ar    
  16 C16            4.8272     3.8711     2.9815 C.ar    
  17 C17            5.1396     4.5438     4.1624 C.ar    
  18 C18            4.7612     5.8623     4.3194 C.ar    
  19 C19            4.0771     6.5181     3.3163 C.ar    
  20 C20            3.7583     5.8592     2.1301 C.ar    
  21 O21            2.4510     5.4470    -1.0350 O.2     
  22 C22            2.5506     7.6625     0.8364 C.3     
  23 C23            1.1124     7.7073     1.3564 C.3     
  24 C24            0.5555     9.1232     1.1948 C.3     
  25 C25           -0.8827     9.1679     1.7148 C.3     
  26 C26           -1.4396    10.5838     1.5532 C.3     
  27 C27            5.2290     2.4540     2.8038 C.ar    
  28 C28            6.1341     2.1050     1.8030 C.ar    
  29 C29            6.5061     0.7871     1.6406 C.ar    
  30 C30            5.9800    -0.1918     2.4727 C.ar    
  31 C31            5.0779     0.1527     3.4702 C.ar    
  32 C32            4.7066     1.4698     3.6411 C.ar    
  33 O33            6.3483    -1.4895     2.3104 O.3     
  34 C34            5.8630    -2.4270     3.2734 C.3     
  35 C35            4.4647    -2.8973     2.8677 C.3     
  36 C36            6.8073    -3.6292     3.3358 C.3     
  37 H37           -0.1728    -0.6138     2.3844 H       
  38 H38           -1.3281    -0.7377     1.0195 H       
  39 H39            3.3734    -0.2357    -0.2990 H       
  40 H40            0.8709     3.6370     1.4475 H       
  41 H41            5.7575     4.0217     0.0722 H       
  42 H42            4.6293     3.9309    -1.3211 H       
  43 H43            5.6755     4.0357     4.9506 H       
  44 H44            5.0021     6.3840     5.2339 H       
  45 H45            3.7862     7.5493     3.4515 H       
  46 H46            3.1644     8.3614     1.4047 H       
  47 H47            2.5647     7.9404    -0.2175 H       
  48 H48            0.4986     7.0084     0.7881 H       
  49 H49            1.0983     7.4294     2.4103 H       
  50 H50            1.1693     9.8220     1.7631 H       
  51 H51            0.5696     9.4010     0.1409 H       
  52 H52           -1.4965     8.4691     1.1465 H       
  53 H53           -0.8968     8.8901     2.7687 H       
  54 H54           -2.4642    10.6157     1.9237 H       
  55 H55           -0.8258    11.2827     2.1215 H       
  56 H56           -1.4255    10.8617     0.4993 H       
  57 H57            6.5435     2.8660     1.1551 H       
  58 H58            7.2072     0.5161     0.8650 H       
  59 H59            4.6699    -0.6109     4.1159 H       
  60 H60            4.0084     1.7379     4.4203 H       
  61 H61            5.8162    -1.9506     4.2527 H       
  62 H62            4.5115    -3.3737     1.8885 H       
  63 H63            4.0945    -3.6124     3.6024 H       
  64 H64            3.7920    -2.0408     2.8234 H       
  65 H65            7.8035    -3.2942     3.6248 H       
  66 H66            6.4371    -4.3443     4.0704 H       
  67 H67            6.8541    -4.1056     2.3565 H       
@<TRIPOS>BOND
   1    1    2 1
   2    1    5 1
   3    2    3 1
   4    2   37 1
   5    2   38 1
   6    3    4 1
   7    4    5 ar
   8    4    6 ar
   9    5    9 ar
  10    6    7 ar
  11    6   39 1
  12    7    8 ar
  13    7   10 1
  14    8    9 ar
  15    8   11 1
  16    9   40 1
  17   10   12 1
  18   11   12 1
  19   11   14 1
  20   11   15 1
  21   12   41 1
  22   12   42 1
  23   13   14 am
  24   13   20 1
  25   13   22 1
  26   14   21 2
  27   15   16 ar
  28   15   20 ar
  29   16   17 ar
  30   16   27 1
  31   17   18 ar
  32   17   43 1
  33   18   19 ar
  34   18   44 1
  35   19   20 ar
  36   19   45 1
  37   22   23 1
  38   22   46 1
  39   22   47 1
  40   23   24 1
  41   23   48 1
  42   23   49 1
  43   24   25 1
  44   24   50 1
  45   24   51 1
  46   25   26 1
  47   25   52 1
  48   25   53 1
  49   26   54 1
  50   26   55 1
  51   26   56 1
  52   27   28 ar
  53   27   32 ar
  54   28   29 ar
  55   28   57 1
  56   29   30 ar
  57   29   58 1
  58   30   31 ar
  59   30   33 1
  60   31   32 ar
  61   31   59 1
  62   32   60 1
  63   33   34 1
  64   34   35 1
  65   34   36 1
  66   34   61 1
  67   35   62 1
  68   35   63 1
  69   35   64 1
  70   36   65 1
  71   36   66 1
  72   36   67 1

#	End of record

