#	Name: ASD01914014
#	Creating user name:	WinNT
#	Creation time:	15. 06. 2019 20:02

#	Modifying user name:	WinNT
#	Modification time:	15. 06. 2019 20:02

#	Program:	/corina/corina34_cracker 3.40 0067  02.08.2006

@<TRIPOS>MOLECULE
ASD01914014
  48   50    0    0    0
SMALL
NO_CHARGES


@<TRIPOS>ATOM
   1 C1            -0.0167     1.3784     0.0096 C.ar    
   2 C2             0.0021    -0.0041     0.0020 C.ar    
   3 C3             1.2074    -0.6814    -0.0131 C.ar    
   4 C4             2.3802     1.4093    -0.0131 C.ar    
   5 C5             1.1695     2.0865     0.0021 C.ar    
   6 O6             3.5484     2.1036    -0.0201 O.3     
   7 C7             4.7565     1.3405    -0.0357 C.3     
   8 C8             5.9399     2.2735    -0.0414 C.ar    
   9 N9             7.1606     1.7732    -0.0557 N.ar    
  10 C10            8.2282     2.5442    -0.0613 C.ar    
  11 C11            8.1003     3.9335    -0.0517 C.ar    
  12 C12            6.8174     4.4944    -0.0366 C.ar    
  13 C13            5.7285     3.6408    -0.0374 C.ar    
  14 C14            9.2990     4.7988    -0.0571 C.2     
  15 N15           10.5284     4.2469    -0.0712 N.am    
  16 O16            9.1757     6.0080    -0.0486 O.2     
  17 C17           11.7163     5.1043    -0.0765 C.3     
  18 C18            2.3963     0.0221    -0.0207 C.ar    
  19 C19           12.9740     4.2333    -0.0929 C.3     
  20 C20           14.2103     5.1250    -0.2241 C.3     
  21 C21           15.4680     4.2540    -0.2405 C.3     
  22 C22           15.5517     3.4545     1.0614 C.3     
  23 C23           14.3154     2.5628     1.1926 C.3     
  24 C24           13.0577     3.4338     1.2089 C.3     
  25 H25           -0.9595     1.9052     0.0169 H       
  26 H26           -0.9263    -0.5558     0.0083 H       
  27 H27            1.2194    -1.7613    -0.0187 H       
  28 H28            1.1543     3.1664     0.0077 H       
  29 H29            4.7976     0.7070     0.8504 H       
  30 H30            4.7810     0.7171    -0.9295 H       
  31 H31            9.2113     2.0972    -0.0730 H       
  32 H32            6.6813     5.5658    -0.0288 H       
  33 H33            4.7241     4.0376    -0.0259 H       
  34 H34           10.6268     3.2819    -0.0780 H       
  35 H35           11.7023     5.7390    -0.9626 H       
  36 H36           11.7180     5.7282     0.8173 H       
  37 H37            3.3375    -0.5074    -0.0325 H       
  38 H38           12.9297     3.5470    -0.9385 H       
  39 H39           14.1507     5.6946    -1.1515 H       
  40 H40           14.2546     5.8114     0.6215 H       
  41 H41           15.4237     3.5677    -1.0861 H       
  42 H42           16.3488     4.8893    -0.3340 H       
  43 H43           16.4477     2.8340     1.0497 H       
  44 H44           15.5960     4.1408     1.9070 H       
  45 H45           14.2711     1.8764     0.3469 H       
  46 H46           14.3750     1.9932     2.1200 H       
  47 H47           13.1020     4.1201     2.0546 H       
  48 H48           12.1769     2.7985     1.3024 H       
@<TRIPOS>BOND
   1    1    2 ar
   2    1    5 ar
   3    1   25 1
   4    2    3 ar
   5    2   26 1
   6    3   18 ar
   7    3   27 1
   8    4    5 ar
   9    4    6 1
  10    4   18 ar
  11    5   28 1
  12    6    7 1
  13    7    8 1
  14    7   29 1
  15    7   30 1
  16    8    9 ar
  17    8   13 ar
  18    9   10 ar
  19   10   11 ar
  20   10   31 1
  21   11   12 ar
  22   11   14 1
  23   12   13 ar
  24   12   32 1
  25   13   33 1
  26   14   15 am
  27   14   16 2
  28   15   17 1
  29   15   34 1
  30   17   19 1
  31   17   35 1
  32   17   36 1
  33   18   37 1
  34   19   20 1
  35   19   24 1
  36   19   38 1
  37   20   21 1
  38   20   39 1
  39   20   40 1
  40   21   22 1
  41   21   41 1
  42   21   42 1
  43   22   23 1
  44   22   43 1
  45   22   44 1
  46   23   24 1
  47   23   45 1
  48   23   46 1
  49   24   47 1
  50   24   48 1

#	End of record

