#	Name: ASD04882206
#	Creating user name:	WinNT
#	Creation time:	15. 06. 2019 20:54

#	Modifying user name:	WinNT
#	Modification time:	15. 06. 2019 20:54

#	Program:	/corina/corina34_cracker 3.40 0067  02.08.2006

@<TRIPOS>MOLECULE
ASD04882206
  76   80    0    0    0
SMALL
NO_CHARGES


@<TRIPOS>ATOM
   1 C1            -0.1617     1.4745     0.4542 C.2     
   2 C2            -0.1422     0.0094     0.4885 C.2     
   3 N3            -1.1637    -0.6908    -0.0432 N.am    
   4 C4            -1.0913    -2.0880    -0.1180 C.ar    
   5 C5            -2.2495    -2.8571     0.0250 C.ar    
   6 C6            -2.1792    -4.2435    -0.0495 C.ar    
   7 C7            -0.9687    -4.8641    -0.2644 C.ar    
   8 C8             0.1935    -4.1011    -0.4083 C.ar    
   9 C9             0.1247    -2.7067    -0.3390 C.ar    
  10 N10           -3.4755    -2.2337     0.2428 N.3     
  11 C11           -3.4998    -1.5616     1.5495 C.3     
  12 C12           -4.5823    -3.1935     0.1269 C.3     
  13 C13           -5.9130    -2.4562     0.2937 C.3     
  14 N14           -5.9373    -1.7840     1.6003 N.3     
  15 C15           -4.8305    -0.8242     1.7162 C.3     
  16 C16           -7.1670    -1.1588     1.8188 C.ar    
  17 C17           -7.9513    -1.5260     2.9047 C.ar    
  18 C18           -7.6058    -0.1642     0.9537 C.ar    
  19 C19           -8.8221     0.4518     1.1727 C.ar    
  20 C20           -9.6030     0.0800     2.2519 C.ar    
  21 C21           -9.1669    -0.9057     3.1179 C.ar    
  22 C22            1.4900    -4.7661    -0.6385 C.2     
  23 N23            1.5545    -6.1105    -0.7102 N.am    
  24 O24            2.5006    -4.1015    -0.7636 O.2     
  25 O25            0.7966    -0.5750     0.9972 O.2     
  26 C26            0.7952     2.2989     0.9496 C.2     
  27 N27            0.5397     3.5735     0.7923 N.2     
  28 C28           -0.5676     3.8893     0.1979 C.2     
  29 S29           -1.4286     2.4803    -0.2446 S.3     
  30 C30           -7.4768    -2.6003     3.8490 C.3     
  31 C31            2.8420    -6.7709    -0.9389 C.3     
  32 C32            2.6380    -8.2868    -0.9771 C.3     
  33 C33            3.9826    -8.9765    -1.2159 C.3     
  34 N34            3.7872   -10.4280    -1.2525 N.am    
  35 C35            3.4926   -11.1934    -2.4696 C.3     
  36 C36            2.9485   -12.5536    -1.9794 C.3     
  37 C37            3.5927   -12.6644    -0.5781 C.3     
  38 C38            3.8604   -11.2305    -0.1767 C.2     
  39 O39            4.0991   -10.8583     0.9527 O.2     
  40 C40            2.0442     1.7915     1.6231 C.3     
  41 Cl41          -1.0982     5.5130    -0.1114 Cl      
  42 H42           -1.9490    -0.2275    -0.3740 H       
  43 H43           -3.0758    -4.8352     0.0617 H       
  44 H44           -0.9173    -5.9414    -0.3215 H       
  45 H45            1.0210    -2.1145    -0.4502 H       
  46 H46           -3.3929    -2.3026     2.3416 H       
  47 H47           -2.6785    -0.8471     1.6062 H       
  48 H48           -4.5503    -3.6688    -0.8535 H       
  49 H49           -4.4877    -3.9531     0.9029 H       
  50 H50           -6.0199    -1.7151    -0.4985 H       
  51 H51           -6.7343    -3.1706     0.2370 H       
  52 H52           -4.8625    -0.3489     2.6966 H       
  53 H53           -4.9251    -0.0646     0.9402 H       
  54 H54           -6.9962     0.1270     0.1112 H       
  55 H55           -9.1638     1.2250     0.5005 H       
  56 H56          -10.5535     0.5640     2.4213 H       
  57 H57           -9.7791    -1.1937     3.9597 H       
  58 H58            0.7484    -6.6407    -0.6105 H       
  59 H59           -6.8974    -2.1471     4.6534 H       
  60 H60           -8.3374    -3.1204     4.2696 H       
  61 H61           -6.8523    -3.3106     3.3071 H       
  62 H62            3.2584    -6.4363    -1.8890 H       
  63 H63            3.5290    -6.5171    -0.1316 H       
  64 H64            2.2216    -8.6214    -0.0270 H       
  65 H65            1.9510    -8.5406    -1.7844 H       
  66 H66            4.3990    -8.6419    -2.1660 H       
  67 H67            4.6696    -8.7227    -0.4086 H       
  68 H68            2.7392   -10.6786    -3.0658 H       
  69 H69            4.4017   -11.3390    -3.0530 H       
  70 H70            1.8609   -12.5360    -1.9084 H       
  71 H71            3.2825   -13.3638    -2.6275 H       
  72 H72            2.9041   -13.1372     0.1221 H       
  73 H73            4.5275   -13.2225    -0.6310 H       
  74 H74            2.8282     1.6538     0.8784 H       
  75 H75            2.3744     2.5148     2.3687 H       
  76 H76            1.8335     0.8390     2.1093 H       
@<TRIPOS>BOND
   1    1    2 1
   2    1   26 2
   3    1   29 1
   4    2    3 am
   5    2   25 2
   6    3    4 1
   7    3   42 1
   8    4    5 ar
   9    4    9 ar
  10    5    6 ar
  11    5   10 1
  12    6    7 ar
  13    6   43 1
  14    7    8 ar
  15    7   44 1
  16    8    9 ar
  17    8   22 1
  18    9   45 1
  19   10   11 1
  20   10   12 1
  21   11   15 1
  22   11   46 1
  23   11   47 1
  24   12   13 1
  25   12   48 1
  26   12   49 1
  27   13   14 1
  28   13   50 1
  29   13   51 1
  30   14   15 1
  31   14   16 1
  32   15   52 1
  33   15   53 1
  34   16   17 ar
  35   16   18 ar
  36   17   30 1
  37   17   21 ar
  38   18   19 ar
  39   18   54 1
  40   19   20 ar
  41   19   55 1
  42   20   21 ar
  43   20   56 1
  44   21   57 1
  45   22   23 am
  46   22   24 2
  47   23   31 1
  48   23   58 1
  49   26   27 1
  50   26   40 1
  51   27   28 2
  52   28   29 1
  53   28   41 1
  54   30   59 1
  55   30   60 1
  56   30   61 1
  57   31   32 1
  58   31   62 1
  59   31   63 1
  60   32   33 1
  61   32   64 1
  62   32   65 1
  63   33   34 1
  64   33   66 1
  65   33   67 1
  66   34   35 1
  67   34   38 am
  68   35   36 1
  69   35   68 1
  70   35   69 1
  71   36   37 1
  72   36   70 1
  73   36   71 1
  74   37   38 1
  75   37   72 1
  76   37   73 1
  77   38   39 2
  78   40   74 1
  79   40   75 1
  80   40   76 1

#	End of record

