#	Name: ASD01917548
#	Creating user name:	WinNT
#	Creation time:	15. 06. 2019 20:09

#	Modifying user name:	WinNT
#	Modification time:	15. 06. 2019 20:09

#	Program:	/corina/corina34_cracker 3.40 0067  02.08.2006

@<TRIPOS>MOLECULE
ASD01917548
  38   41    0    0    0
SMALL
NO_CHARGES


@<TRIPOS>ATOM
   1 N1             4.8221    -0.4101    -2.1399 N.ar    
   2 C2             5.2887     0.2869    -3.1570 C.ar    
   3 C3             5.1758     1.6671    -3.1836 C.ar    
   4 C4             4.5619     2.3160    -2.1222 C.ar    
   5 C5             4.0813     1.5474    -1.0668 C.ar    
   6 C6             4.2325     0.1690    -1.1129 C.ar    
   7 F7             5.6580     2.3727    -4.2300 F       
   8 O8             3.4730     2.1386    -0.0051 O.3     
   9 C9             3.4532     3.4979     0.0440 C.2     
  10 N10            2.2004     5.5129    -0.0224 N.pl3   
  11 C11            2.2713     4.1523    -0.0658 C.2     
  12 C12            4.6540     4.1996     0.2130 C.2     
  13 C13            4.6285     5.5877     0.2626 C.2     
  14 C14            3.3353     6.2652     0.1349 C.2     
  15 C15            5.8696     6.3590     0.4395 C.2     
  16 N16            5.8257     7.7052     0.4853 N.am    
  17 C17            6.9830     8.4310     0.7580 C.ar    
  18 N18            8.1426     7.8010     0.8641 N.ar    
  19 C19            6.9107     9.8109     0.9108 C.ar    
  20 C20            8.0681    10.5197     1.1815 C.ar    
  21 C21            9.2624     9.8209     1.2905 C.ar    
  22 C22            9.2617     8.4502     1.1213 C.ar    
  23 O23            6.9349     5.7813     0.5444 O.2     
  24 C24            1.1513     6.3894    -0.1084 C.2     
  25 C25            1.6636     7.6346    -0.0109 C.2     
  26 N26            2.9885     7.5395     0.1424 N.2     
  27 H27            5.7655    -0.2248    -3.9799 H       
  28 H28            4.4598     3.3912    -2.1152 H       
  29 H29            3.8631    -0.4363    -0.2983 H       
  30 H30            1.3631     3.5815    -0.1911 H       
  31 H31            5.5892     3.6671     0.3041 H       
  32 H32            4.9882     8.1688     0.3283 H       
  33 H33            5.9642    10.3229     0.8191 H       
  34 H34            8.0427    11.5923     1.3049 H       
  35 H35           10.1835    10.3442     1.5007 H       
  36 H36           10.1892     7.9027     1.2012 H       
  37 H37            0.1101     6.1327    -0.2371 H       
  38 H38            1.0971     8.5535    -0.0425 H       
@<TRIPOS>BOND
   1    1    2 ar
   2    1    6 ar
   3    2    3 ar
   4    2   27 1
   5    3    4 ar
   6    3    7 1
   7    4    5 ar
   8    4   28 1
   9    5    6 ar
  10    5    8 1
  11    6   29 1
  12    8    9 1
  13    9   12 1
  14    9   11 2
  15   10   11 1
  16   10   24 1
  17   10   14 1
  18   11   30 1
  19   12   13 2
  20   12   31 1
  21   13   14 1
  22   13   15 1
  23   14   26 2
  24   15   16 am
  25   15   23 2
  26   16   17 1
  27   16   32 1
  28   17   19 ar
  29   17   18 ar
  30   18   22 ar
  31   19   20 ar
  32   19   33 1
  33   20   21 ar
  34   20   34 1
  35   21   22 ar
  36   21   35 1
  37   22   36 1
  38   24   25 2
  39   24   37 1
  40   25   26 1
  41   25   38 1

#	End of record

