#	Name: ASD08170770
#	Creating user name:	WinNT
#	Creation time:	15. 06. 2019 21:17

#	Modifying user name:	WinNT
#	Modification time:	15. 06. 2019 21:17

#	Program:	/corina/corina34_cracker 3.40 0067  02.08.2006

@<TRIPOS>MOLECULE
ASD08170770
  53   54    0    0    0
SMALL
NO_CHARGES


@<TRIPOS>ATOM
   1 N1            -0.0155     1.2947     0.0092 N.2     
   2 C2             0.0021    -0.0041     0.0020 C.2     
   3 S3             1.6320    -0.5310    -0.0164 S.3     
   4 C4             2.1557     1.1534    -0.0123 C.2     
   5 N5             1.0945     1.8960     0.0018 N.2     
   6 C6             7.9570     3.1008     4.2506 C.2     
   7 S7             7.8334     4.5556     5.2404 S.3     
   8 C8             8.6093     3.7258     6.5226 C.2     
   9 N9             8.8778     2.5160     6.1334 N.2     
  10 N10            8.5379     2.1879     4.9626 N.2     
  11 N11           -1.1168    -0.8300     0.0087 N.am    
  12 C12           -2.3521    -0.2911     0.0233 C.2     
  13 O13           -2.4879     0.9140     0.0307 O.2     
  14 C14           -3.5646    -1.1861     0.0305 C.3     
  15 C15           -3.5345    -2.0755     1.2751 C.3     
  16 C16           -4.8314    -0.3284     0.0471 C.3     
  17 C17            3.5816     1.6410    -0.0229 C.3     
  18 C18            4.0775     1.7984     1.4160 C.3     
  19 C19            5.5251     2.2933     1.4053 C.3     
  20 C20            6.0210     2.4507     2.8441 C.3     
  21 C21            7.4687     2.9457     2.8334 C.3     
  22 N22            8.9034     4.2592     7.7729 N.am    
  23 C23            9.5194     3.5007     8.7012 C.2     
  24 O24            9.8173     2.3530     8.4462 O.2     
  25 C25            9.8381     4.0787    10.0559 C.3     
  26 C26            8.5425     4.5201    10.7397 C.3     
  27 C27           10.5311     3.0175    10.9129 C.3     
  28 H28           -1.0082    -1.7939     0.0028 H       
  29 H29           -3.5603    -1.8108    -0.8627 H       
  30 H30           -4.4115    -2.7229     1.2803 H       
  31 H31           -2.6320    -2.6866     1.2633 H       
  32 H32           -3.5387    -1.4508     2.1683 H       
  33 H33           -4.8528     0.3052    -0.8396 H       
  34 H34           -5.7084    -0.9758     0.0523 H       
  35 H35           -4.8357     0.2963     0.9403 H       
  36 H36            4.2086     0.9191    -0.5463 H       
  37 H37            3.6328     2.6033    -0.5321 H       
  38 H38            3.4505     2.5202     1.9394 H       
  39 H39            4.0263     0.8360     1.9252 H       
  40 H40            6.1521     1.5715     0.8818 H       
  41 H41            5.5763     3.2557     0.8960 H       
  42 H42            5.3940     3.1726     3.3675 H       
  43 H43            5.9698     1.4884     3.3534 H       
  44 H44            7.5198     3.9081     2.3241 H       
  45 H45            8.0956     2.2239     2.3100 H       
  46 H46            8.6652     5.1771     7.9768 H       
  47 H47           10.4979     4.9383     9.9382 H       
  48 H48            8.7730     4.9382    11.7196 H       
  49 H49            8.0488     5.2761    10.1291 H       
  50 H50            7.8827     3.6605    10.8575 H       
  51 H51           11.4542     2.7031    10.4258 H       
  52 H52           10.7616     3.4356    11.8928 H       
  53 H53            9.8714     2.1579    11.0307 H       
@<TRIPOS>BOND
   1    1    2 2
   2    1    5 1
   3    2    3 1
   4    2   11 1
   5    3    4 1
   6    4    5 2
   7    4   17 1
   8    6    7 1
   9    6   21 1
  10    6   10 2
  11    7    8 1
  12    8    9 2
  13    8   22 1
  14    9   10 1
  15   11   12 am
  16   11   28 1
  17   12   13 2
  18   12   14 1
  19   14   15 1
  20   14   16 1
  21   14   29 1
  22   15   30 1
  23   15   31 1
  24   15   32 1
  25   16   33 1
  26   16   34 1
  27   16   35 1
  28   17   18 1
  29   17   36 1
  30   17   37 1
  31   18   19 1
  32   18   38 1
  33   18   39 1
  34   19   20 1
  35   19   40 1
  36   19   41 1
  37   20   21 1
  38   20   42 1
  39   20   43 1
  40   21   44 1
  41   21   45 1
  42   22   23 am
  43   22   46 1
  44   23   24 2
  45   23   25 1
  46   25   26 1
  47   25   27 1
  48   25   47 1
  49   26   48 1
  50   26   49 1
  51   26   50 1
  52   27   51 1
  53   27   52 1
  54   27   53 1

#	End of record

