#	Name: ASD01910784
#	Creating user name:	WinNT
#	Creation time:	15. 06. 2019 19:56

#	Modifying user name:	WinNT
#	Modification time:	15. 06. 2019 19:56

#	Program:	/corina/corina34_cracker 3.40 0067  02.08.2006

@<TRIPOS>MOLECULE
ASD01910784
  57   61    0    0    0
SMALL
NO_CHARGES


@<TRIPOS>ATOM
   1 C1            -0.2810     1.0409     0.3894 C.ar    
   2 N2            -0.1915    -0.2741     0.3034 N.ar    
   3 C3             0.9914    -0.8556     0.2305 C.ar    
   4 C4             2.1518    -0.0841     0.2443 C.ar    
   5 N5             2.0676     1.2361     0.3305 N.ar    
   6 C6             0.8743     1.8194     0.4034 C.ar    
   7 N7             3.3964    -0.6982     0.1684 N.3     
   8 C8             3.2586    -2.1581     0.0805 C.3     
   9 C9             4.6329    -2.7826    -0.1830 C.3     
  10 N10            5.5676    -2.3071     0.8482 N.am    
  11 C11            5.6597    -0.8592     1.0896 C.3     
  12 C12            4.2449    -0.3104     1.3030 C.3     
  13 C13            6.3202    -3.1751     1.5529 C.2     
  14 C14            7.3421    -2.6717     2.4957 C.ar    
  15 O15            6.1590    -4.3718     1.4134 O.2     
  16 C16            7.5337    -3.3071     3.7247 C.ar    
  17 C17            8.4871    -2.8386     4.6074 C.ar    
  18 C18            9.2572    -1.7402     4.2828 C.ar    
  19 C19            9.0764    -1.0939     3.0558 C.ar    
  20 C20            8.1194    -1.5662     2.1576 C.ar    
  21 C21            9.8752     0.0462     2.7202 C.1     
  22 C22           10.5301     0.9809     2.4450 C.1     
  23 C23           11.3289     2.1210     2.1094 C.ar    
  24 N24           11.1515     2.7305     0.9412 N.ar    
  25 C25           11.8662     3.7816     0.5961 C.ar    
  26 C26           12.8333     4.2926     1.4423 C.ar    
  27 C27           13.0524     3.6874     2.6727 C.ar    
  28 C28           12.2854     2.5886     3.0146 C.ar    
  29 C29            0.7738     3.2962     0.4994 C.ar    
  30 C30           -0.4679     3.9025     0.6805 C.ar    
  31 C31           -0.5554     5.2770     0.7692 C.ar    
  32 C32            0.5864     6.0526     0.6786 C.ar    
  33 C33            1.8215     5.4562     0.4988 C.ar    
  34 C34            1.9215     4.0823     0.4146 C.ar    
  35 H35           -1.2507     1.5132     0.4444 H       
  36 H36            1.0600    -1.9311     0.1603 H       
  37 H37            2.8581    -2.5427     1.0185 H       
  38 H38            2.5816    -2.4111    -0.7354 H       
  39 H39            4.5567    -3.8689    -0.1353 H       
  40 H40            4.9895    -2.4807    -1.1678 H       
  41 H41            6.2623    -0.6738     1.9787 H       
  42 H42            6.1150    -0.3724     0.2272 H       
  43 H43            4.2833     0.7766     1.3737 H       
  44 H44            3.8307    -0.7207     2.2240 H       
  45 H45            6.9345    -4.1669     3.9856 H       
  46 H46            8.6305    -3.3339     5.5563 H       
  47 H47           10.0007    -1.3789     4.9778 H       
  48 H48            7.9751    -1.0714     1.2086 H       
  49 H49           11.6948     4.2509    -0.3614 H       
  50 H50           13.4135     5.1548     1.1485 H       
  51 H51           13.8026     4.0689     3.3496 H       
  52 H52           12.4293     2.0940     3.9638 H       
  53 H53           -1.3601     3.2979     0.7510 H       
  54 H54           -1.5172     5.7479     0.9092 H       
  55 H55            0.5132     7.1278     0.7481 H       
  56 H56            2.7096     6.0666     0.4287 H       
  57 H57            2.8864     3.6177     0.2745 H       
@<TRIPOS>BOND
   1    1    2 ar
   2    1    6 ar
   3    1   35 1
   4    2    3 ar
   5    3    4 ar
   6    3   36 1
   7    4    5 ar
   8    4    7 1
   9    5    6 ar
  10    6   29 1
  11    7    8 1
  12    7   12 1
  13    8    9 1
  14    8   37 1
  15    8   38 1
  16    9   10 1
  17    9   39 1
  18    9   40 1
  19   10   11 1
  20   10   13 am
  21   11   12 1
  22   11   41 1
  23   11   42 1
  24   12   43 1
  25   12   44 1
  26   13   14 1
  27   13   15 2
  28   14   16 ar
  29   14   20 ar
  30   16   17 ar
  31   16   45 1
  32   17   18 ar
  33   17   46 1
  34   18   19 ar
  35   18   47 1
  36   19   20 ar
  37   19   21 1
  38   20   48 1
  39   21   22 3
  40   22   23 1
  41   23   24 ar
  42   23   28 ar
  43   24   25 ar
  44   25   26 ar
  45   25   49 1
  46   26   27 ar
  47   26   50 1
  48   27   28 ar
  49   27   51 1
  50   28   52 1
  51   29   30 ar
  52   29   34 ar
  53   30   31 ar
  54   30   53 1
  55   31   32 ar
  56   31   54 1
  57   32   33 ar
  58   32   55 1
  59   33   34 ar
  60   33   56 1
  61   34   57 1

#	End of record

