#	Name: ASD01881934
#	Creating user name:	WinNT
#	Creation time:	15. 06. 2019 19:43

#	Modifying user name:	WinNT
#	Modification time:	15. 06. 2019 19:43

#	Program:	/corina/corina34_cracker 3.40 0067  02.08.2006

@<TRIPOS>MOLECULE
ASD01881934
  48   50    0    0    0
SMALL
NO_CHARGES


@<TRIPOS>ATOM
   1 C1            -0.0162     1.3436     0.0094 C.2     
   2 N2             0.0021    -0.0041     0.0020 N.am    
   3 O3             1.0277     1.9654     0.0028 O.2     
   4 O4            -1.1912     2.0008     0.0186 O.3     
   5 C5             1.2806    -0.7192    -0.0140 C.3     
   6 C6             1.0214    -2.2271    -0.0197 C.3     
   7 O7             0.3680    -2.5936    -1.2365 O.3     
   8 N8            -0.9654    -7.8272    -2.1505 N.pl3   
   9 N9            -1.5439    -7.6213    -3.4117 N.2     
  10 N10           -1.4789    -6.3726    -3.7138 N.2     
  11 C11           -0.8800    -5.6815    -2.7235 C.ar    
  12 C12           -0.5417    -6.5943    -1.7094 C.ar    
  13 C13           -0.5675    -4.3254    -2.5558 C.ar    
  14 C14            0.0639    -3.9086    -1.4022 C.ar    
  15 C15            0.3925    -4.8250    -0.4061 C.ar    
  16 C16            0.0953    -6.1502    -0.5562 C.ar    
  17 C17           -0.8424    -9.1024    -1.4400 C.3     
  18 C18            0.4818    -9.7702    -1.8162 C.3     
  19 C19            0.8534   -11.0629    -1.0870 C.3     
  20 C20            0.4134   -11.1101    -2.5516 C.3     
  21 Br21          -1.0096    -3.0742    -3.9029 Br      
  22 C22           -1.1349     3.4517     0.0262 C.3     
  23 C23           -0.4003     3.9401    -1.2239 C.3     
  24 C24           -2.5565     4.0172     0.0360 C.3     
  25 C25           -0.3885     3.9266     1.2745 C.3     
  26 H26           -0.8313    -0.5005     0.0073 H       
  27 H27            1.8400    -0.4434    -0.9079 H       
  28 H28            1.8570    -0.4529     0.8719 H       
  29 H29            1.9697    -2.7590     0.0580 H       
  30 H30            0.3870    -2.4899     0.8269 H       
  31 H31            0.8869    -4.4854     0.4920 H       
  32 H32            0.3545    -6.8530     0.2219 H       
  33 H33           -0.8663    -8.9232    -0.3650 H       
  34 H34           -1.6702    -9.7547    -1.7181 H       
  35 H35            1.2921    -9.0911    -2.0813 H       
  36 H36            1.9082   -11.2344    -0.8726 H       
  37 H37            0.1545   -11.4376    -0.3392 H       
  38 H38           -0.5750   -11.5159    -2.7673 H       
  39 H39            1.1787   -11.3128    -3.3008 H       
  40 H40           -0.9321     3.6018    -2.1132 H       
  41 H41           -0.3581     5.0293    -1.2182 H       
  42 H42            0.6125     3.5373    -1.2309 H       
  43 H43           -3.0798     3.6692     0.9266 H       
  44 H44           -2.5142     5.1064     0.0417 H       
  45 H45           -3.0883     3.6789    -0.8533 H       
  46 H46            0.6243     3.5237     1.2675 H       
  47 H47           -0.3462     5.0157     1.2802 H       
  48 H48           -0.9118     3.5786     2.1651 H       
@<TRIPOS>BOND
   1    1    2 am
   2    1    3 2
   3    1    4 1
   4    2    5 1
   5    2   26 1
   6    4   22 1
   7    5    6 1
   8    5   27 1
   9    5   28 1
  10    6    7 1
  11    6   29 1
  12    6   30 1
  13    7   14 1
  14    8    9 1
  15    8   12 1
  16    8   17 1
  17    9   10 2
  18   10   11 1
  19   11   12 ar
  20   11   13 ar
  21   12   16 ar
  22   13   14 ar
  23   13   21 1
  24   14   15 ar
  25   15   16 ar
  26   15   31 1
  27   16   32 1
  28   17   18 1
  29   17   33 1
  30   17   34 1
  31   18   19 1
  32   18   20 1
  33   18   35 1
  34   19   20 1
  35   19   36 1
  36   19   37 1
  37   20   38 1
  38   20   39 1
  39   22   23 1
  40   22   25 1
  41   22   24 1
  42   23   40 1
  43   23   41 1
  44   23   42 1
  45   24   43 1
  46   24   44 1
  47   24   45 1
  48   25   46 1
  49   25   47 1
  50   25   48 1

#	End of record

