#	Name: ASD01940324
#	Creating user name:	WinNT
#	Creation time:	15. 06. 2019 20:12

#	Modifying user name:	WinNT
#	Modification time:	15. 06. 2019 20:12

#	Program:	/corina/corina34_cracker 3.40 0067  02.08.2006

@<TRIPOS>MOLECULE
ASD01940324
  20   20    0    0    0
SMALL
NO_CHARGES


@<TRIPOS>ATOM
   1 C1            -0.0167     1.3783     0.0096 C.ar    
   2 C2             0.0021    -0.0041     0.0020 C.ar    
   3 C3             1.2094    -0.6806    -0.0131 C.ar    
   4 C4             2.4003     0.0287    -0.0207 C.ar    
   5 C5             2.3794     1.4143    -0.0130 C.ar    
   6 C6             1.1696     2.0873     0.0021 C.ar    
   7 N7            -1.2699    -0.7610     0.0106 N.pl3   
   8 O8            -1.8037    -1.0668    -1.0407 O.2     
   9 O9            -1.7827    -1.0782     1.0688 O.2     
  10 F10            3.5387     2.1079    -0.0203 F       
  11 F11            3.5799    -0.6299    -0.0350 F       
  12 F12            1.2272    -2.0315    -0.0201 F       
  13 C13           -1.3324     2.1129     0.0198 C.3     
  14 C14           -1.8322     2.2440     1.4599 C.3     
  15 H15            1.1528     3.1672     0.0080 H       
  16 H16           -1.1976     3.1056    -0.4097 H       
  17 H17           -2.0628     1.5582    -0.5692 H       
  18 H18           -1.9670     1.2513     1.8895 H       
  19 H19           -1.1018     2.7986     2.0490 H       
  20 H20           -2.7839     2.7753     1.4673 H       
@<TRIPOS>BOND
   1    1    2 ar
   2    1    6 ar
   3    1   13 1
   4    2    3 ar
   5    2    7 1
   6    3    4 ar
   7    3   12 1
   8    4    5 ar
   9    4   11 1
  10    5    6 ar
  11    5   10 1
  12    6   15 1
  13    7    8 2
  14    7    9 2
  15   13   14 1
  16   13   16 1
  17   13   17 1
  18   14   18 1
  19   14   19 1
  20   14   20 1

#	End of record

