#	Name: ASD03331536
#	Creating user name:	WinNT
#	Creation time:	15. 06. 2019 20:39

#	Modifying user name:	WinNT
#	Modification time:	15. 06. 2019 20:39

#	Program:	/corina/corina34_cracker 3.40 0067  02.08.2006

@<TRIPOS>MOLECULE
ASD03331536
  61   63    0    0    0
SMALL
NO_CHARGES


@<TRIPOS>ATOM
   1 C1             1.5912     1.6031    -0.6504 C.ar    
   2 C2             1.7546     0.2367    -0.5569 C.ar    
   3 C3             0.6371    -0.5930    -0.4583 C.ar    
   4 C4            -0.6419    -0.0358    -0.4547 C.ar    
   5 C5            -0.7957     1.3337    -0.5488 C.ar    
   6 C6             0.3198     2.1535    -0.6466 C.ar    
   7 C7             0.8079    -2.0590    -0.3583 C.2     
   8 N8             1.9244    -2.7573    -0.7210 N.pl3   
   9 C9             1.6738    -4.0720    -0.4855 C.2     
  10 C10            0.4165    -4.1562     0.0312 C.2     
  11 N11           -0.0856    -2.9039     0.0988 N.2     
  12 C12            3.1694    -2.1971    -1.2539 C.3     
  13 C13            3.8615    -3.2405    -2.1340 C.3     
  14 C14            4.7957    -4.0995    -1.2834 C.3     
  15 C15            4.0061    -4.8517    -0.2166 C.3     
  16 C16            2.6206    -5.2096    -0.7634 C.3     
  17 C17           -0.2713    -5.3915     0.4465 C.2     
  18 O18            0.2899    -6.4653     0.3397 O.2     
  19 N19           -1.5222    -5.3315     0.9446 N.am    
  20 F20            0.1654     3.4925    -0.7388 F       
  21 F21           -2.0332     1.8756    -0.5455 F       
  22 C22           -2.2059    -6.5597     1.3574 C.3     
  23 C23           -3.6969    -6.3531     1.2850 C.2     
  24 C24           -2.1039    -5.7154     3.7066 C.3     
  25 N25           -4.5122    -7.4015     1.0555 N.am    
  26 O26           -4.1633    -5.2434     1.4334 O.2     
  27 C27           -1.8082    -6.9068     2.7934 C.3     
  28 C28           -2.6094    -8.1220     3.2649 C.3     
  29 C29           -0.3136    -7.2301     2.8447 C.3     
  30 C30           -5.9508    -7.1863     0.8811 C.3     
  31 C31           -6.6413    -8.5294     0.6359 C.3     
  32 F32           -8.0151    -8.3240     0.4693 F       
  33 H33            2.4563     2.2456    -0.7222 H       
  34 H34            2.7465    -0.1905    -0.5604 H       
  35 H35           -1.5100    -0.6739    -0.3789 H       
  36 H36            2.9444    -1.3117    -1.8485 H       
  37 H37            3.8273    -1.9235    -0.4290 H       
  38 H38            3.1095    -3.8765    -2.6011 H       
  39 H39            4.4387    -2.7355    -2.9085 H       
  40 H40            5.3090    -4.8165    -1.9241 H       
  41 H41            5.5340    -3.4593    -0.8006 H       
  42 H42            4.5374    -5.7646     0.0524 H       
  43 H43            3.8966    -4.2216     0.6660 H       
  44 H44            2.2580    -6.1137    -0.2743 H       
  45 H45            2.6849    -5.3761    -1.8387 H       
  46 H46           -1.9697    -4.4752     1.0297 H       
  47 H47           -1.9196    -7.3756     0.6937 H       
  48 H48           -3.1686    -5.4850     3.6701 H       
  49 H49           -1.8205    -5.9627     4.7297 H       
  50 H50           -1.5331    -4.8497     3.3707 H       
  51 H51           -4.1464    -8.2985     1.0058 H       
  52 H52           -2.3563    -8.9852     2.6493 H       
  53 H53           -2.3674    -8.3349     4.3062 H       
  54 H54           -3.6751    -7.9116     3.1752 H       
  55 H55            0.2571    -6.3644     2.5087 H       
  56 H56           -0.0303    -7.4774     3.8677 H       
  57 H57           -0.1030    -8.0789     2.1940 H       
  58 H58           -6.3608    -6.7257     1.7799 H       
  59 H59           -6.1191    -6.5300     0.0273 H       
  60 H60           -6.2312    -8.9900    -0.2629 H       
  61 H61           -6.4729    -9.1858     1.4897 H       
@<TRIPOS>BOND
   1    1    2 ar
   2    1    6 ar
   3    1   33 1
   4    2    3 ar
   5    2   34 1
   6    3    4 ar
   7    3    7 1
   8    4    5 ar
   9    4   35 1
  10    5    6 ar
  11    5   21 1
  12    6   20 1
  13    7    8 1
  14    7   11 2
  15    8    9 1
  16    8   12 1
  17    9   10 2
  18    9   16 1
  19   10   11 1
  20   10   17 1
  21   12   13 1
  22   12   36 1
  23   12   37 1
  24   13   14 1
  25   13   38 1
  26   13   39 1
  27   14   15 1
  28   14   40 1
  29   14   41 1
  30   15   16 1
  31   15   42 1
  32   15   43 1
  33   16   44 1
  34   16   45 1
  35   17   18 2
  36   17   19 am
  37   19   22 1
  38   19   46 1
  39   22   27 1
  40   22   23 1
  41   22   47 1
  42   23   25 am
  43   23   26 2
  44   24   27 1
  45   24   48 1
  46   24   49 1
  47   24   50 1
  48   25   30 1
  49   25   51 1
  50   27   28 1
  51   27   29 1
  52   28   52 1
  53   28   53 1
  54   28   54 1
  55   29   55 1
  56   29   56 1
  57   29   57 1
  58   30   31 1
  59   30   58 1
  60   30   59 1
  61   31   32 1
  62   31   60 1
  63   31   61 1

#	End of record

