#	Name: ASD01412069
#	Creating user name:	WinNT
#	Creation time:	15. 06. 2019 19:20

#	Modifying user name:	WinNT
#	Modification time:	15. 06. 2019 19:20

#	Program:	/corina/corina34_cracker 3.40 0067  02.08.2006

@<TRIPOS>MOLECULE
ASD01412069
  53   55    0    0    0
SMALL
NO_CHARGES


@<TRIPOS>ATOM
   1 C1            -0.1831     0.3139    -0.9377 C.ar    
   2 C2             0.1418    -0.9345    -1.4751 C.ar    
   3 C3             1.4307    -1.1875    -1.9451 C.ar    
   4 C4             2.4015    -0.2014    -1.8830 C.ar    
   5 C5             2.0853     1.0621    -1.3428 C.ar    
   6 C6             0.7773     1.3136    -0.8680 C.ar    
   7 C7             1.7682    -2.5383    -2.5219 C.3     
   8 C8            -0.8853    -1.9925    -1.5455 C.2     
   9 N9            -1.6278    -2.2843    -0.4592 N.am    
  10 O10           -1.0615    -2.6006    -2.5835 O.2     
  11 C11           -2.7335    -3.2397    -0.5628 C.3     
  12 N12            3.7304    -0.1606    -2.2608 N.pl3   
  13 C13            4.2311     1.0701    -1.9728 C.2     
  14 C14            3.2604     1.8322    -1.4161 C.2     
  15 C15            5.6347     1.5784    -2.2086 C.3     
  16 O16            5.6158     3.0069    -2.0933 O.3     
  17 C17            4.9977     3.4947    -0.8996 C.3     
  18 C18            3.4823     3.2578    -0.9735 C.3     
  19 C19            6.5808     0.9879    -1.1612 C.3     
  20 C20            7.9964     1.5192    -1.3955 C.3     
  21 C21            8.9424     0.9294    -0.3475 C.3     
  22 C22            6.1001     1.1791    -3.6103 C.3     
  23 C23           -1.3290    -1.6461     0.8252 C.3     
  24 C24            0.4448     2.5936    -0.3189 C.1     
  25 N25            0.1811     3.6091     0.1168 N.1     
  26 C26            5.2052     1.8213    -4.6387 C.2     
  27 O27            4.3665     2.6204    -4.2952 O.2     
  28 O28            5.3397     1.5056    -5.9364 O.3     
  29 H29           -1.1845     0.5026    -0.5801 H       
  30 H30            1.4850    -2.5651    -3.5741 H       
  31 H31            2.8397    -2.7155    -2.4293 H       
  32 H32            1.2239    -3.3112    -1.9793 H       
  33 H33           -2.3659    -4.2448    -0.3561 H       
  34 H34           -3.5070    -2.9799     0.1600 H       
  35 H35           -3.1505    -3.2051    -1.5693 H       
  36 H36            4.2249    -0.8906    -2.6650 H       
  37 H37            5.4060     2.9673    -0.0374 H       
  38 H38            5.1940     4.5621    -0.7989 H       
  39 H39            3.0363     3.9419    -1.6954 H       
  40 H40            3.0358     3.4136     0.0086 H       
  41 H41            6.2450     1.2755    -0.1649 H       
  42 H42            6.5823    -0.0989    -1.2445 H       
  43 H43            8.3324     1.2310    -2.3915 H       
  44 H44            7.9948     2.6061    -1.3128 H       
  45 H45            8.9440    -0.1574    -0.4302 H       
  46 H46            9.9508     1.3080    -0.5144 H       
  47 H47            8.6063     1.2176     0.6485 H       
  48 H48            7.1262     1.5142    -3.7616 H       
  49 H49            6.0530     0.0950    -3.7138 H       
  50 H50           -0.4225    -1.0481     0.7316 H       
  51 H51           -2.1604    -1.0029     1.1134 H       
  52 H52           -1.1818    -2.4125     1.5862 H       
  53 H53            4.7430     1.9433    -6.5588 H       
@<TRIPOS>BOND
   1    1    2 ar
   2    1    6 ar
   3    1   29 1
   4    2    3 ar
   5    2    8 1
   6    3    4 ar
   7    3    7 1
   8    4    5 ar
   9    4   12 1
  10    5    6 ar
  11    5   14 1
  12    6   24 1
  13    7   30 1
  14    7   31 1
  15    7   32 1
  16    8    9 am
  17    8   10 2
  18    9   11 1
  19    9   23 1
  20   11   33 1
  21   11   34 1
  22   11   35 1
  23   12   13 1
  24   12   36 1
  25   13   14 2
  26   13   15 1
  27   14   18 1
  28   15   16 1
  29   15   19 1
  30   15   22 1
  31   16   17 1
  32   17   18 1
  33   17   37 1
  34   17   38 1
  35   18   39 1
  36   18   40 1
  37   19   20 1
  38   19   41 1
  39   19   42 1
  40   20   21 1
  41   20   43 1
  42   20   44 1
  43   21   45 1
  44   21   46 1
  45   21   47 1
  46   22   26 1
  47   22   48 1
  48   22   49 1
  49   23   50 1
  50   23   51 1
  51   23   52 1
  52   24   25 3
  53   26   27 2
  54   26   28 1
  55   28   53 1

#	End of record

