#	Name: ASD01913153
#	Creating user name:	WinNT
#	Creation time:	15. 06. 2019 20:01

#	Modifying user name:	WinNT
#	Modification time:	15. 06. 2019 20:01

#	Program:	/corina/corina34_cracker 3.40 0067  02.08.2006

@<TRIPOS>MOLECULE
ASD01913153
  45   47    0    0    0
SMALL
NO_CHARGES


@<TRIPOS>ATOM
   1 C1             0.0437     1.1613     0.0636 C.ar    
   2 C2             0.0315    -0.2219     0.0880 C.ar    
   3 C3            -1.1703    -0.9030     0.0973 C.ar    
   4 C4            -2.3655    -0.1990     0.0823 C.ar    
   5 C5            -2.3512     1.1879     0.0578 C.ar    
   6 C6            -1.1472     1.8653     0.0543 C.ar    
   7 O7            -3.5490    -0.8673     0.0910 O.3     
   8 C8            -4.7400    -0.0777     0.0744 C.3     
   9 C9            -5.9622    -0.9980     0.0874 C.3     
  10 C10           -7.2182    -0.1654     0.0700 C.2     
  11 N11           -8.4248    -0.7657     0.0774 N.am    
  12 C12           -9.6630     0.0280     0.0607 C.3     
  13 C13          -10.5616    -0.4956    -1.0647 C.3     
  14 N14          -10.7536    -1.9427    -0.9006 N.3     
  15 C15           -9.4814    -2.6665    -1.0244 C.3     
  16 C16           -8.5384    -2.2320     0.0964 C.3     
  17 O17           -7.1431     1.0450     0.0492 O.2     
  18 C18          -11.6971    -2.4290    -1.8096 C.ar    
  19 C19          -11.3057    -3.2946    -2.8223 C.ar    
  20 C20          -12.2403    -3.7744    -3.7196 C.ar    
  21 C21          -13.5649    -3.3941    -3.6108 C.ar    
  22 C22          -13.9598    -2.5311    -2.6032 C.ar    
  23 C23          -13.0303    -2.0518    -1.6985 C.ar    
  24 Cl24         -13.5252    -0.9698    -0.4343 Cl      
  25 Br25           1.6903     2.0910     0.0509 Br      
  26 Cl26         -15.6241    -2.0553    -2.4712 Cl      
  27 H27            0.9623    -0.7696     0.0994 H       
  28 H28           -1.1793    -1.9828     0.1160 H       
  29 H29           -3.2806     1.7379     0.0457 H       
  30 H30           -1.1356     2.9451     0.0356 H       
  31 H31           -4.7610     0.5666     0.9533 H       
  32 H32           -4.7567     0.5358    -0.8264 H       
  33 H33           -5.9412    -1.6423    -0.7915 H       
  34 H34           -5.9455    -1.6115     0.9882 H       
  35 H35          -10.1764    -0.0742     1.0168 H       
  36 H36           -9.4237     1.0761    -0.1194 H       
  37 H37          -11.5281     0.0067    -1.0219 H       
  38 H38          -10.0909    -0.2980    -2.0277 H       
  39 H39           -9.6643    -3.7386    -0.9525 H       
  40 H40           -9.0257    -2.4387    -1.9881 H       
  41 H41           -7.5562    -2.6789    -0.0575 H       
  42 H42           -8.9417    -2.5496     1.0580 H       
  43 H43          -10.2711    -3.5923    -2.9088 H       
  44 H44          -11.9356    -4.4474    -4.5074 H       
  45 H45          -14.2931    -3.7709    -4.3137 H       
@<TRIPOS>BOND
   1    1    2 ar
   2    1   25 1
   3    1    6 ar
   4    2    3 ar
   5    2   27 1
   6    3    4 ar
   7    3   28 1
   8    4    5 ar
   9    4    7 1
  10    5    6 ar
  11    5   29 1
  12    6   30 1
  13    7    8 1
  14    8    9 1
  15    8   31 1
  16    8   32 1
  17    9   10 1
  18    9   33 1
  19    9   34 1
  20   10   11 am
  21   10   17 2
  22   11   12 1
  23   11   16 1
  24   12   13 1
  25   12   35 1
  26   12   36 1
  27   13   14 1
  28   13   37 1
  29   13   38 1
  30   14   15 1
  31   14   18 1
  32   15   16 1
  33   15   39 1
  34   15   40 1
  35   16   41 1
  36   16   42 1
  37   18   19 ar
  38   18   23 ar
  39   19   20 ar
  40   19   43 1
  41   20   21 ar
  42   20   44 1
  43   21   22 ar
  44   21   45 1
  45   22   23 ar
  46   22   26 1
  47   23   24 1

#	End of record

