#	Name: ASD02500037
#	Creating user name:	WinNT
#	Creation time:	15. 06. 2019 20:22

#	Modifying user name:	WinNT
#	Modification time:	15. 06. 2019 20:22

#	Program:	/corina/corina34_cracker 3.40 0067  02.08.2006

@<TRIPOS>MOLECULE
ASD02500037
  56   60    0    0    0
SMALL
NO_CHARGES


@<TRIPOS>ATOM
   1 N1             0.2669    -0.6178     2.1563 N.ar    
   2 C2             0.6495    -1.8646     1.9377 C.ar    
   3 C3             1.8855    -2.1240     1.3764 C.ar    
   4 N4             2.6908    -1.1256     1.0555 N.ar    
   5 C5             2.3108     0.1269     1.2726 C.ar    
   6 C6             1.0644     0.3843     1.8386 C.ar    
   7 N7             3.1545     1.1794     0.9367 N.3     
   8 C8             4.4103     0.6833     0.3580 C.3     
   9 C9             5.2316     1.8675    -0.1629 C.3     
  10 N10            5.3913     2.8411     0.9278 N.am    
  11 C11            4.1875     3.2825     1.6484 C.3     
  12 C12            3.4073     2.0426     2.0981 C.3     
  13 C13            6.6086     3.3159     1.2585 C.2     
  14 O14            7.6035     2.8606     0.7281 O.2     
  15 C15            6.7339     4.3881     2.2641 C.ar    
  16 C16            7.7966     4.3758     3.1722 C.ar    
  17 C17            7.9108     5.3773     4.1090 C.ar    
  18 C18            6.9693     6.4020     4.1530 C.ar    
  19 C19            5.9098     6.4170     3.2499 C.ar    
  20 C20            5.7934     5.4214     2.3070 C.ar    
  21 N21            7.0872     7.4122     5.1010 N.am    
  22 S22            6.9143     8.9960     4.6492 S.o2    
  23 O23            7.2012     9.7757     5.8020 O.2     
  24 C24            8.1863     9.3471     3.4817 C.ar    
  25 C25            9.5353     9.3061     3.8745 C.ar    
  26 C26           10.5405     9.5923     2.9175 C.ar    
  27 C27           10.1738     9.9100     1.6000 C.ar    
  28 C28            8.8564     9.9395     1.2568 C.ar    
  29 C29            7.8667     9.6538     2.1948 C.ar    
  30 O30            5.6853     9.0793     3.9408 O.2     
  31 N31            9.8794     9.0030     5.1303 N.ar    
  32 C32           11.1359     8.9637     5.5019 C.ar    
  33 C33           12.1727     9.2344     4.6113 C.ar    
  34 C34           11.8909     9.5506     3.3129 C.ar    
  35 H35           -0.0056    -2.6825     2.1989 H       
  36 H36            2.1942    -3.1438     1.1998 H       
  37 H37            0.7510     1.4024     2.0167 H       
  38 H38            4.9792     0.1544     1.1226 H       
  39 H39            4.1881     0.0045    -0.4654 H       
  40 H40            6.2115     1.5184    -0.4886 H       
  41 H41            4.7103     2.3355    -0.9980 H       
  42 H42            4.4772     3.8690     2.5204 H       
  43 H43            3.5659     3.8865     0.9874 H       
  44 H44            2.4578     2.3496     2.5367 H       
  45 H45            3.9902     1.4948     2.8385 H       
  46 H46            8.5271     3.5810     3.1389 H       
  47 H47            8.7313     5.3682     4.8112 H       
  48 H48            5.1809     7.2130     3.2867 H       
  49 H49            4.9715     5.4338     1.6065 H       
  50 H50            7.2706     7.1893     6.0271 H       
  51 H51           10.9321    10.1301     0.8633 H       
  52 H52            8.5752    10.1840     0.2431 H       
  53 H53            6.8288     9.6835     1.8978 H       
  54 H54           11.3737     8.7151     6.5256 H       
  55 H55           13.1983     9.1944     4.9475 H       
  56 H56           12.6821     9.7629     2.6091 H       
@<TRIPOS>BOND
   1    1    2 ar
   2    1    6 ar
   3    2    3 ar
   4    2   35 1
   5    3    4 ar
   6    3   36 1
   7    4    5 ar
   8    5    6 ar
   9    5    7 1
  10    6   37 1
  11    7    8 1
  12    7   12 1
  13    8    9 1
  14    8   38 1
  15    8   39 1
  16    9   10 1
  17    9   40 1
  18    9   41 1
  19   10   11 1
  20   10   13 am
  21   11   12 1
  22   11   42 1
  23   11   43 1
  24   12   44 1
  25   12   45 1
  26   13   14 2
  27   13   15 1
  28   15   16 ar
  29   15   20 ar
  30   16   17 ar
  31   16   46 1
  32   17   18 ar
  33   17   47 1
  34   18   19 ar
  35   18   21 1
  36   19   20 ar
  37   19   48 1
  38   20   49 1
  39   21   22 am
  40   21   50 1
  41   22   23 2
  42   22   24 1
  43   22   30 2
  44   24   25 ar
  45   24   29 ar
  46   25   26 ar
  47   25   31 ar
  48   26   27 ar
  49   26   34 ar
  50   27   28 ar
  51   27   51 1
  52   28   29 ar
  53   28   52 1
  54   29   53 1
  55   31   32 ar
  56   32   33 ar
  57   32   54 1
  58   33   34 ar
  59   33   55 1
  60   34   56 1

#	End of record

