#	Name: ASD06170207
#	Creating user name:	WinNT
#	Creation time:	15. 06. 2019 21:05

#	Modifying user name:	WinNT
#	Modification time:	15. 06. 2019 21:05

#	Program:	/corina/corina34_cracker 3.40 0067  02.08.2006

@<TRIPOS>MOLECULE
ASD06170207
  75   80    0    0    0
SMALL
NO_CHARGES


@<TRIPOS>ATOM
   1 C1            -0.0004     1.3125     0.1102 C.2     
   2 C2            -0.0549    -0.0517    -0.2611 C.2     
   3 C3             1.1395    -0.7028    -0.6183 C.2     
   4 C4             2.3419     0.0277    -0.5925 C.2     
   5 C5             2.3337     1.3290    -0.2295 C.2     
   6 N6             1.1796     1.9599     0.1161 N.am    
   7 C7            -1.3312    -0.7725    -0.2728 C.2     
   8 O8            -1.3834    -1.9106    -0.7010 O.2     
   9 N9            -2.4468    -0.1750     0.1906 N.am    
  10 N10            1.1325    -2.0283    -0.9853 N.pl3   
  11 C11            3.5464    -4.8304    -1.8086 C.3     
  12 C12            2.2948    -4.1697    -1.2249 C.3     
  13 C13            2.3609    -2.6597    -1.4736 C.3     
  14 C14            2.5041    -2.4068    -2.9776 C.3     
  15 C15            3.7476    -3.1356    -3.4936 C.3     
  16 O16            3.6356    -4.5303    -3.2029 O.3     
  17 C17            1.2197     3.3103     0.4852 C.ar    
  18 C18            0.6024     4.2673    -0.3094 C.ar    
  19 C19            0.6437     5.5983     0.0573 C.ar    
  20 C20            1.2989     5.9782     1.2142 C.ar    
  21 C21            1.9146     5.0275     2.0076 C.ar    
  22 C22            1.8719     3.6943     1.6494 C.ar    
  23 O23           -1.0217     1.9022     0.4194 O.2     
  24 C24           -3.6343    -0.8993     0.2939 C.ar    
  25 C25           -3.5940    -2.2892     0.2964 C.ar    
  26 C26           -4.7774    -2.9976     0.3992 C.ar    
  27 C27           -5.9706    -2.2856     0.4969 C.ar    
  28 C28           -5.9340    -0.9005     0.4879 C.ar    
  29 N29           -4.7864    -0.2562     0.3938 N.ar    
  30 O30           -7.1569    -2.9418     0.5993 O.3     
  31 N31           -7.8858    -5.0509     4.0680 N.ar    
  32 C32           -6.8063    -4.3125     3.9590 C.ar    
  33 C33           -6.5273    -3.5887     2.8066 C.ar    
  34 C34           -7.4031    -3.6382     1.7364 C.ar    
  35 C35           -8.5620    -4.4363     1.8651 C.ar    
  36 C36           -9.4961    -4.5363     0.8231 C.ar    
  37 C37          -10.6045    -5.3168     0.9822 C.ar    
  38 C38          -10.8187    -6.0196     2.1765 C.ar    
  39 C39           -9.9261    -5.9395     3.2062 C.ar    
  40 C40           -8.7755    -5.1448     3.0726 C.ar    
  41 O41          -11.9299    -6.7901     2.3109 O.3     
  42 C42          -12.0934    -7.4821     3.5504 C.3     
  43 O43          -11.5102    -5.4135    -0.0274 O.3     
  44 C44          -11.2356    -4.6733    -1.2185 C.3     
  45 H45            3.2712    -0.4519    -0.8625 H       
  46 H46            3.2627     1.8796    -0.2134 H       
  47 H47           -2.4239     0.7587     0.4523 H       
  48 H48            0.3141    -2.5451    -0.9208 H       
  49 H49            4.4305    -4.4494    -1.2975 H       
  50 H50            3.4845    -5.9101    -1.6724 H       
  51 H51            1.4077    -4.5798    -1.7076 H       
  52 H52            2.2484    -4.3606    -0.1528 H       
  53 H53            3.2196    -2.2410    -0.9488 H       
  54 H54            1.6212    -2.7813    -3.4956 H       
  55 H55            2.6075    -1.3370    -3.1589 H       
  56 H56            3.8308    -2.9944    -4.5712 H       
  57 H57            4.6344    -2.7325    -3.0044 H       
  58 H58            0.0908     3.9713    -1.2133 H       
  59 H59            0.1641     6.3431    -0.5605 H       
  60 H60            1.3301     7.0196     1.4986 H       
  61 H61            2.4258     5.3274     2.9105 H       
  62 H62            2.3491     2.9518     2.2718 H       
  63 H63           -2.6505    -2.8090     0.2186 H       
  64 H64           -4.7764    -4.0775     0.4034 H       
  65 H65           -6.8552    -0.3417     0.5630 H       
  66 H66           -6.1160    -4.2662     4.7882 H       
  67 H67           -5.6308    -2.9894     2.7465 H       
  68 H68           -9.3391    -3.9981    -0.1000 H       
  69 H69          -10.1039    -6.4855     4.1209 H       
  70 H70          -11.2499    -8.1550     3.7050 H       
  71 H71          -12.1369    -6.7606     4.3663 H       
  72 H72          -13.0182    -8.0586     3.5255 H       
  73 H73          -10.2879    -5.0055    -1.6424 H       
  74 H74          -12.0346    -4.8383    -1.9413 H       
  75 H75          -11.1746    -3.6113    -0.9804 H       
@<TRIPOS>BOND
   1    1    2 1
   2    1    6 am
   3    1   23 2
   4    2    3 2
   5    2    7 1
   6    3    4 1
   7    3   10 1
   8    4    5 2
   9    4   45 1
  10    5    6 1
  11    5   46 1
  12    6   17 1
  13    7    8 2
  14    7    9 am
  15    9   24 1
  16    9   47 1
  17   10   13 1
  18   10   48 1
  19   11   12 1
  20   11   16 1
  21   11   49 1
  22   11   50 1
  23   12   13 1
  24   12   51 1
  25   12   52 1
  26   13   14 1
  27   13   53 1
  28   14   15 1
  29   14   54 1
  30   14   55 1
  31   15   16 1
  32   15   56 1
  33   15   57 1
  34   17   18 ar
  35   17   22 ar
  36   18   19 ar
  37   18   58 1
  38   19   20 ar
  39   19   59 1
  40   20   21 ar
  41   20   60 1
  42   21   22 ar
  43   21   61 1
  44   22   62 1
  45   24   25 ar
  46   24   29 ar
  47   25   26 ar
  48   25   63 1
  49   26   27 ar
  50   26   64 1
  51   27   28 ar
  52   27   30 1
  53   28   29 ar
  54   28   65 1
  55   30   34 1
  56   31   32 ar
  57   31   40 ar
  58   32   33 ar
  59   32   66 1
  60   33   34 ar
  61   33   67 1
  62   34   35 ar
  63   35   36 ar
  64   35   40 ar
  65   36   37 ar
  66   36   68 1
  67   37   38 ar
  68   37   43 1
  69   38   39 ar
  70   38   41 1
  71   39   40 ar
  72   39   69 1
  73   41   42 1
  74   42   70 1
  75   42   71 1
  76   42   72 1
  77   43   44 1
  78   44   73 1
  79   44   74 1
  80   44   75 1

#	End of record

