#	Name: ASD01148746
#	Creating user name:	WinNT
#	Creation time:	15. 06. 2019 19:03

#	Modifying user name:	WinNT
#	Modification time:	15. 06. 2019 19:03

#	Program:	/corina/corina34_cracker 3.40 0067  02.08.2006

@<TRIPOS>MOLECULE
ASD01148746
  48   50    0    0    0
SMALL
NO_CHARGES


@<TRIPOS>ATOM
   1 N1             0.0978     0.3362     1.3707 N.pl3   
   2 C2             0.3512    -0.9112     0.9045 C.2     
   3 C3             1.6722    -0.9637     0.5140 C.2     
   4 C4             2.2301     0.3175     0.7613 C.2     
   5 C5             1.2446     1.0905     1.2847 C.2     
   6 C6             2.3723    -2.1292    -0.0528 C.2     
   7 O7             2.1323    -3.2456     0.3660 O.2     
   8 N8             3.2788    -1.9585    -1.0354 N.am    
   9 C9             3.8921    -3.1241    -1.6768 C.3     
  10 C10            3.6510    -0.6073    -1.4620 C.3     
  11 C11           -1.1366     0.7868     1.8569 C.ar    
  12 C12           -1.6541     0.2626     3.0338 C.ar    
  13 C13           -2.8712     0.7087     3.5105 C.ar    
  14 C14           -3.5745     1.6762     2.8165 C.ar    
  15 C15           -3.0617     2.2002     1.6441 C.ar    
  16 C16           -1.8422     1.7626     1.1656 C.ar    
  17 S17           -5.1274     2.2420     3.4272 S.o2    
  18 O18           -5.8339     2.7601     2.3084 O.2     
  19 O19           -5.6354     1.2043     4.2546 O.2     
  20 N20           -4.8227     3.5284     4.4246 N.am    
  21 C21           -0.6394    -2.0442     0.8265 C.3     
  22 C22            1.3810     2.5053     1.6931 C.ar    
  23 C23            0.4697     3.0669     2.5886 C.ar    
  24 C24            0.6023     4.3870     2.9663 C.ar    
  25 C25            1.6367     5.1547     2.4584 C.ar    
  26 C26            2.5436     4.6031     1.5692 C.ar    
  27 C27            2.4248     3.2824     1.1891 C.ar    
  28 Cl28           1.7968     6.8155     2.9378 Cl      
  29 H29            3.2487     0.6208     0.5695 H       
  30 H30            3.1161    -3.7353    -2.1377 H       
  31 H31            4.5940    -2.7908    -2.4413 H       
  32 H32            4.4224    -3.7134    -0.9288 H       
  33 H33            4.4320    -0.2216    -0.8067 H       
  34 H34            4.0196    -0.6386    -2.4873 H       
  35 H35            2.7783     0.0437    -1.4093 H       
  36 H36           -1.1056    -0.4936     3.5759 H       
  37 H37           -3.2742     0.3013     4.4259 H       
  38 H38           -3.6133     2.9557     1.1043 H       
  39 H39           -1.4400     2.1757     0.2524 H       
  40 H40           -5.4796     4.2360     4.5178 H       
  41 H41           -3.9874     3.5743     4.9155 H       
  42 H42           -1.1460    -2.0181    -0.1383 H       
  43 H43           -0.1151    -2.9935     0.9361 H       
  44 H44           -1.3737    -1.9403     1.6254 H       
  45 H45           -0.3378     2.4692     2.9848 H       
  46 H46           -0.1023     4.8227     3.6592 H       
  47 H47            3.3479     5.2070     1.1758 H       
  48 H48            3.1356     2.8519     0.4993 H       
@<TRIPOS>BOND
   1    1    2 1
   2    1    5 1
   3    1   11 1
   4    2    3 2
   5    2   21 1
   6    3    4 1
   7    3    6 1
   8    4    5 2
   9    4   29 1
  10    5   22 1
  11    6    7 2
  12    6    8 am
  13    8    9 1
  14    8   10 1
  15    9   30 1
  16    9   31 1
  17    9   32 1
  18   10   33 1
  19   10   34 1
  20   10   35 1
  21   11   12 ar
  22   11   16 ar
  23   12   13 ar
  24   12   36 1
  25   13   14 ar
  26   13   37 1
  27   14   15 ar
  28   14   17 1
  29   15   16 ar
  30   15   38 1
  31   16   39 1
  32   17   18 2
  33   17   19 2
  34   17   20 am
  35   20   40 1
  36   20   41 1
  37   21   42 1
  38   21   43 1
  39   21   44 1
  40   22   23 ar
  41   22   27 ar
  42   23   24 ar
  43   23   45 1
  44   24   25 ar
  45   24   46 1
  46   25   26 ar
  47   25   28 1
  48   26   27 ar
  49   26   47 1
  50   27   48 1

#	End of record

