#	Name: ASD01810705
#	Creating user name:	WinNT
#	Creation time:	15. 06. 2019 19:25

#	Modifying user name:	WinNT
#	Modification time:	15. 06. 2019 19:25

#	Program:	/corina/corina34_cracker 3.40 0067  02.08.2006

@<TRIPOS>MOLECULE
ASD01810705
  25   24    0    0    0
SMALL
NO_CHARGES


@<TRIPOS>ATOM
   1 Cl1            0.0000     0.0000     0.0000 Cl      
   2 H2             0.0000     1.3700     0.0000 H       
   3 N3             5.9172     8.1982     7.1003 N.3     
   4 N4             5.9369     6.7444     7.0923 N.3     
   5 C5             7.7426     8.9408     5.6439 C.3     
   6 C6             7.2813     8.7433     7.0902 C.3     
   7 C7             7.2982    10.0941     7.8124 C.3     
   8 C8             6.4094    11.0802     7.0483 C.3     
   9 C9             6.9043    11.1875     5.6036 C.3     
  10 O10            6.8927     9.8922     5.0000 O.3     
  11 C11            6.7640     9.9203     9.2355 C.3     
  12 H12            5.3788     8.5568     6.3260 H       
  13 H13            5.0000     6.3700     7.0993 H       
  14 H14            6.4604     6.3942     6.3041 H       
  15 H15            8.7692     9.3070     5.6366 H       
  16 H16            7.6918     7.9902     5.1131 H       
  17 H17            7.9548     8.0514     7.5961 H       
  18 H18            8.3186    10.4755     7.8486 H       
  19 H19            5.3796    10.7230     7.0549 H       
  20 H20            6.4592    12.0596     7.5241 H       
  21 H21            6.2496    11.8553     5.0437 H       
  22 H22            7.9200    11.5831     5.5957 H       
  23 H23            7.3927     9.2124     9.7757 H       
  24 H24            6.7766    10.8821     9.7483 H       
  25 H25            5.7423     9.5426     9.1965 H       
@<TRIPOS>BOND
   1    1    2 1
   2    3    4 1
   3    3    6 1
   4    3   12 1
   5    4   13 1
   6    4   14 1
   7    5    6 1
   8    5   10 1
   9    5   15 1
  10    5   16 1
  11    6    7 1
  12    6   17 1
  13    7    8 1
  14    7   11 1
  15    7   18 1
  16    8    9 1
  17    8   19 1
  18    8   20 1
  19    9   10 1
  20    9   21 1
  21    9   22 1
  22   11   23 1
  23   11   24 1
  24   11   25 1

#	End of record

