#	Name: ASD07301061
#	Creating user name:	WinNT
#	Creation time:	15. 06. 2019 21:10

#	Modifying user name:	WinNT
#	Modification time:	15. 06. 2019 21:10

#	Program:	/corina/corina34_cracker 3.40 0067  02.08.2006

@<TRIPOS>MOLECULE
ASD07301061
  34   34    0    0    0
SMALL
NO_CHARGES


@<TRIPOS>ATOM
   1 C1            -0.1847     1.4990    -0.4445 C.2     
   2 C2            -0.1503    -0.0075    -0.4540 C.3     
   3 O3             0.6778     2.1290    -1.0193 O.2     
   4 N4            -1.1770     2.1464     0.1979 N.am    
   5 C5            -1.1509     3.5417     0.3000 C.ar    
   6 C6            -2.3399     4.2605     0.2981 C.ar    
   7 C7            -2.3148     5.6361     0.3992 C.ar    
   8 C8            -1.0992     6.3033     0.5031 C.ar    
   9 C9             0.0905     5.5833     0.5049 C.ar    
  10 C10            0.0638     4.2074     0.4091 C.ar    
  11 N11            0.0547     8.3127     0.7012 N.2     
  12 N12           -1.0731     7.6941     0.6049 N.pl3   
  13 C13            0.0862     9.6366     0.6969 C.2     
  14 C14           -1.1633    10.3982     0.6999 C.2     
  15 C15           -1.8590    10.6995     2.0023 C.3     
  16 O16           -1.6393    10.7872    -0.3466 O.2     
  17 C17            1.3706    10.3379     0.6891 C.2     
  18 O18            1.3995    11.5512     0.6852 O.2     
  19 C19            2.6574     9.5535     0.6861 C.3     
  20 H20            0.7154    -0.3476    -1.0223 H       
  21 H21           -0.0806    -0.3758     0.5695 H       
  22 H22           -1.0609    -0.3889    -0.9161 H       
  23 H23           -1.9093     1.6451     0.5895 H       
  24 H24           -3.2840     3.7423     0.2171 H       
  25 H25           -3.2391     6.1948     0.3974 H       
  26 H26            1.0349     6.1010     0.5852 H       
  27 H27            0.9875     3.6478     0.4150 H       
  28 H28           -1.9031     8.1962     0.6032 H       
  29 H29           -1.4310    11.5999     2.4430 H       
  30 H30           -2.9221    10.8547     1.8189 H       
  31 H31           -1.7269     9.8618     2.6870 H       
  32 H32            2.6964     8.9228    -0.2021 H       
  33 H33            3.5025    10.2419     0.6802 H       
  34 H34            2.7040     8.9284     1.5778 H       
@<TRIPOS>BOND
   1    1    2 1
   2    1    3 2
   3    1    4 am
   4    2   20 1
   5    2   21 1
   6    2   22 1
   7    4    5 1
   8    4   23 1
   9    5    6 ar
  10    5   10 ar
  11    6    7 ar
  12    6   24 1
  13    7    8 ar
  14    7   25 1
  15    8    9 ar
  16    8   12 1
  17    9   10 ar
  18    9   26 1
  19   10   27 1
  20   11   12 1
  21   11   13 2
  22   12   28 1
  23   13   14 1
  24   13   17 1
  25   14   15 1
  26   14   16 2
  27   15   29 1
  28   15   30 1
  29   15   31 1
  30   17   18 2
  31   17   19 1
  32   19   32 1
  33   19   33 1
  34   19   34 1

#	End of record

