#	Name: ASD00431016
#	Creating user name:	WinNT
#	Creation time:	15. 06. 2019 18:35

#	Modifying user name:	WinNT
#	Modification time:	15. 06. 2019 18:35

#	Program:	/corina/corina34_cracker 3.40 0067  02.08.2006

@<TRIPOS>MOLECULE
ASD00431016
  19   18    0    0    0
SMALL
NO_CHARGES


@<TRIPOS>ATOM
   1 C1            -0.0187     1.5258     0.0104 C.3     
   2 C2             0.0021    -0.0041     0.0020 C.3     
   3 C3            -1.4266    -0.5342     0.1385 C.3     
   4 N4            -1.4067    -2.0031     0.1305 N.3     
   5 C5             1.4167     2.0553    -0.0004 C.3     
   6 C6            -0.7587     2.0326    -1.2291 C.3     
   7 H7            -0.5289     1.8773     0.9072 H       
   8 H8             0.4324    -0.3564    -0.9354 H       
   9 H9             0.6044    -0.3639     0.8362 H       
  10 H10           -1.8569    -0.1819     1.0760 H       
  11 H11           -2.0289    -0.1745    -0.6956 H       
  12 H12           -2.3393    -2.3779     0.2195 H       
  13 H13           -0.9537    -2.3540    -0.7000 H       
  14 H14            1.9269     1.7038    -0.8972 H       
  15 H15            1.4019     3.1452     0.0056 H       
  16 H16            1.9439     1.6943     0.8826 H       
  17 H17           -1.7813     1.6553    -1.2214 H       
  18 H18           -0.7734     3.1225    -1.2231 H       
  19 H19           -0.2485     1.6811    -2.1259 H       
@<TRIPOS>BOND
   1    1    2 1
   2    1    5 1
   3    1    6 1
   4    1    7 1
   5    2    3 1
   6    2    8 1
   7    2    9 1
   8    3    4 1
   9    3   10 1
  10    3   11 1
  11    4   12 1
  12    4   13 1
  13    5   14 1
  14    5   15 1
  15    5   16 1
  16    6   17 1
  17    6   18 1
  18    6   19 1

#	End of record

