#	Name: ASD04910544
#	Creating user name:	WinNT
#	Creation time:	15. 06. 2019 20:56

#	Modifying user name:	WinNT
#	Modification time:	15. 06. 2019 20:56

#	Program:	/corina/corina34_cracker 3.40 0067  02.08.2006

@<TRIPOS>MOLECULE
ASD04910544
  67   70    0    0    0
SMALL
NO_CHARGES


@<TRIPOS>ATOM
   1 C1            -0.6178     1.5218    -0.8117 C.2     
   2 C2            -0.4920     0.0242    -0.6996 C.3     
   3 C3             0.9772    -0.3766    -0.8472 C.3     
   4 O4             0.3666     2.1990    -0.9913 O.2     
   5 O5            -1.8241     2.1029    -0.7176 O.3     
   6 C6             2.3101    -2.4163    -0.8382 C.2     
   7 C7             2.4335    -3.8855    -0.7282 C.ar    
   8 C8             3.6857    -4.4934    -0.8313 C.ar    
   9 C9             3.7940    -5.8648    -0.7272 C.ar    
  10 C10            2.6647    -6.6373    -0.5216 C.ar    
  11 C11            1.4205    -6.0410    -0.4185 C.ar    
  12 C12            1.2990    -4.6702    -0.5150 C.ar    
  13 O13            3.3004    -1.7351    -1.0188 O.2     
  14 N14            1.0995    -1.8324    -0.7382 N.am    
  15 C15            2.7905    -8.1349    -0.4099 C.3     
  16 C16            2.7595    -8.5407     1.0649 C.3     
  17 C17            3.0117   -10.0450     1.1854 C.3     
  18 C18            2.9807   -10.4508     2.6602 C.3     
  19 O19            1.7034    -8.7568    -1.0981 O.3     
  20 C20            1.9602    -9.9398    -1.7161 C.ar    
  21 C21            3.2481   -10.4564    -1.7173 C.ar    
  22 C22            3.5096   -11.6581    -2.3444 C.ar    
  23 C23            2.4833   -12.3500    -2.9742 C.ar    
  24 C24            1.1945   -11.8324    -2.9727 C.ar    
  25 C25            0.9333   -10.6333    -2.3407 C.ar    
  26 C26            0.0803   -12.5826    -3.6559 C.3     
  27 C27            4.9084   -12.2187    -2.3460 C.3     
  28 N28            2.4701   -13.8521    -4.9537 N.2     
  29 N29            2.7481   -13.5697    -3.6114 N.pl3   
  30 C30            3.3068   -14.6404    -3.0250 C.2     
  31 C31            3.4039   -15.6416    -3.9736 C.ar    
  32 C32            3.8889   -16.9668    -3.9746 C.ar    
  33 C33            3.8327   -17.6987    -5.1157 C.ar    
  34 C34            3.3052   -17.1757    -6.2984 C.ar    
  35 C35            2.8220   -15.9098    -6.3676 C.ar    
  36 C36            2.8480   -15.0901    -5.2195 C.ar    
  37 H37           -0.8609    -0.2995     0.2737 H       
  38 H38           -1.0787    -0.4496    -1.4865 H       
  39 H39            1.3461    -0.0529    -1.8204 H       
  40 H40            1.5639     0.0972    -0.0602 H       
  41 H41           -1.8547     3.0662    -0.7958 H       
  42 H42            4.5678    -3.8915    -0.9925 H       
  43 H43            4.7623    -6.3364    -0.8069 H       
  44 H44            0.5429    -6.6497    -0.2580 H       
  45 H45            0.3278    -4.2056    -0.4298 H       
  46 H46            0.3092    -2.3761    -0.5940 H       
  47 H47            3.7327    -8.4546    -0.8550 H       
  48 H48            3.5335    -7.9979     1.6075 H       
  49 H49            1.7836    -8.3010     1.4873 H       
  50 H50            2.2377   -10.5878     0.6428 H       
  51 H51            3.9875   -10.2847     0.7630 H       
  52 H52            3.7547    -9.9080     3.2028 H       
  53 H53            2.0049   -10.2111     3.0826 H       
  54 H54            3.1604   -11.5225     2.7460 H       
  55 H55            4.0462    -9.9181    -1.2277 H       
  56 H56           -0.0697   -10.2329    -2.3356 H       
  57 H57           -0.4242   -13.2226    -2.9319 H       
  58 H58           -0.6338   -11.8724    -4.0727 H       
  59 H59            0.4929   -13.1956    -4.4572 H       
  60 H60            5.0614   -12.8160    -1.4472 H       
  61 H61            5.0476   -12.8454    -3.2268 H       
  62 H62            5.6279   -11.4001    -2.3651 H       
  63 H63            3.6244   -14.7076    -1.9950 H       
  64 H64            4.3022   -17.3953    -3.0736 H       
  65 H65            4.2060   -18.7121    -5.1094 H       
  66 H66            3.2815   -17.7958    -7.1823 H       
  67 H67            2.4201   -15.5317    -7.2960 H       
@<TRIPOS>BOND
   1    1    2 1
   2    1    4 2
   3    1    5 1
   4    2    3 1
   5    2   37 1
   6    2   38 1
   7    3   14 1
   8    3   39 1
   9    3   40 1
  10    5   41 1
  11    6    7 1
  12    6   13 2
  13    6   14 am
  14    7    8 ar
  15    7   12 ar
  16    8    9 ar
  17    8   42 1
  18    9   10 ar
  19    9   43 1
  20   10   11 ar
  21   10   15 1
  22   11   12 ar
  23   11   44 1
  24   12   45 1
  25   14   46 1
  26   15   16 1
  27   15   19 1
  28   15   47 1
  29   16   17 1
  30   16   48 1
  31   16   49 1
  32   17   18 1
  33   17   50 1
  34   17   51 1
  35   18   52 1
  36   18   53 1
  37   18   54 1
  38   19   20 1
  39   20   21 ar
  40   20   25 ar
  41   21   22 ar
  42   21   55 1
  43   22   23 ar
  44   22   27 1
  45   23   24 ar
  46   23   29 1
  47   24   25 ar
  48   24   26 1
  49   25   56 1
  50   26   57 1
  51   26   58 1
  52   26   59 1
  53   27   60 1
  54   27   61 1
  55   27   62 1
  56   28   29 1
  57   28   36 2
  58   29   30 1
  59   30   31 2
  60   30   63 1
  61   31   32 ar
  62   31   36 ar
  63   32   33 ar
  64   32   64 1
  65   33   34 ar
  66   33   65 1
  67   34   35 ar
  68   34   66 1
  69   35   36 ar
  70   35   67 1

#	End of record

