#	Name: ASD01882893
#	Creating user name:	WinNT
#	Creation time:	15. 06. 2019 19:45

#	Modifying user name:	WinNT
#	Modification time:	15. 06. 2019 19:45

#	Program:	/corina/corina34_cracker 3.40 0067  02.08.2006

@<TRIPOS>MOLECULE
ASD01882893
  45   47    0    0    0
SMALL
NO_CHARGES


@<TRIPOS>ATOM
   1 C1            -0.0159     1.3220     0.0093 C.2     
   2 N2             0.0021    -0.0041     0.0020 N.2     
   3 C3             1.1523    -0.6857    -0.0126 C.2     
   4 C4             2.3835     0.0173    -0.0206 C.2     
   5 C5             2.3523     1.3664    -0.0131 C.2     
   6 N6             1.1484     2.0132     0.0019 N.pl3   
   7 O7            -1.0993     2.1290     0.0184 O.3     
   8 C8             0.8540     3.4562     0.0125 C.3     
   9 C9            -0.6831     3.5211     0.0242 C.3     
  10 O10            1.1423    -1.9071    -0.0187 O.2     
  11 C11            3.6366     2.1548    -0.0206 C.3     
  12 F12            4.7240     1.2746    -0.0353 F       
  13 C13           -1.1944     4.2379    -1.2270 C.3     
  14 O14           -2.6209     4.3119    -1.1842 O.3     
  15 C15           -3.2386     4.9234    -2.2289 C.ar    
  16 C16           -4.6216     5.0305    -2.2523 C.ar    
  17 C17           -5.2471     5.6525    -3.3154 C.ar    
  18 C18           -4.4961     6.1681    -4.3555 C.ar    
  19 C19           -3.1176     6.0622    -4.3348 C.ar    
  20 C20           -2.4869     5.4466    -3.2710 C.ar    
  21 C21           -5.1811     6.8461    -5.5140 C.3     
  22 C22           -5.9792     8.0471    -5.0026 C.3     
  23 C23           -4.1309     7.3225    -6.5196 C.3     
  24 C24           -6.1286     5.8572    -6.1960 C.3     
  25 H25            3.3237    -0.5140    -0.0321 H       
  26 H26            1.2651     3.9237     0.9072 H       
  27 H27            1.2480     3.9334    -0.8848 H       
  28 H28           -1.0396     4.0220     0.9243 H       
  29 H29            3.6694     2.7876    -0.9075 H       
  30 H30            3.6857     2.7780     0.8723 H       
  31 H31           -0.7793     5.2451    -1.2639 H       
  32 H32           -0.8857     3.6850    -2.1142 H       
  33 H33           -5.2087     4.6276    -1.4403 H       
  34 H34           -6.3237     5.7358    -3.3343 H       
  35 H35           -2.5332     6.4651    -5.1488 H       
  36 H36           -1.4099     5.3684    -3.2529 H       
  37 H37           -5.3042     8.7516    -4.5167 H       
  38 H38           -6.4747     8.5375    -5.8405 H       
  39 H39           -6.7274     7.7077    -4.2862 H       
  40 H40           -3.5624     6.4669    -6.8839 H       
  41 H41           -4.6264     7.8129    -7.3575 H       
  42 H42           -3.4559     8.0270    -6.0337 H       
  43 H43           -6.8767     5.5178    -5.4796 H       
  44 H44           -6.6240     6.3476    -7.0339 H       
  45 H45           -5.5600     5.0016    -6.5604 H       
@<TRIPOS>BOND
   1    1    2 2
   2    1    6 1
   3    1    7 1
   4    2    3 1
   5    3    4 1
   6    3   10 2
   7    4    5 2
   8    4   25 1
   9    5    6 1
  10    5   11 1
  11    6    8 1
  12    7    9 1
  13    8    9 1
  14    8   26 1
  15    8   27 1
  16    9   13 1
  17    9   28 1
  18   11   12 1
  19   11   29 1
  20   11   30 1
  21   13   14 1
  22   13   31 1
  23   13   32 1
  24   14   15 1
  25   15   16 ar
  26   15   20 ar
  27   16   17 ar
  28   16   33 1
  29   17   18 ar
  30   17   34 1
  31   18   19 ar
  32   18   21 1
  33   19   20 ar
  34   19   35 1
  35   20   36 1
  36   21   22 1
  37   21   24 1
  38   21   23 1
  39   22   37 1
  40   22   38 1
  41   22   39 1
  42   23   40 1
  43   23   41 1
  44   23   42 1
  45   24   43 1
  46   24   44 1
  47   24   45 1

#	End of record

