#	Name: ASD01883128
#	Creating user name:	WinNT
#	Creation time:	15. 06. 2019 19:45

#	Modifying user name:	WinNT
#	Modification time:	15. 06. 2019 19:45

#	Program:	/corina/corina34_cracker 3.40 0067  02.08.2006

@<TRIPOS>MOLECULE
ASD01883128
  53   56    0    0    0
SMALL
NO_CHARGES


@<TRIPOS>ATOM
   1 C1            -0.1962     1.1265     0.0641 C.2     
   2 C2             0.1015    -0.3155    -0.0178 C.ar    
   3 C3             1.4449    -0.7237    -0.0803 C.ar    
   4 N4             2.4576     0.2128    -0.0652 N.pl3   
   5 C5             2.2254     1.5317     0.0080 C.2     
   6 C6             0.9486     2.0504     0.0749 C.2     
   7 C7             3.7840    -0.2323    -0.1285 C.ar    
   8 C8             4.5522     0.0310    -1.2554 C.ar    
   9 C9             5.8596    -0.4081    -1.3171 C.ar    
  10 C10            6.4062    -1.1123    -0.2538 C.ar    
  11 C11            5.6394    -1.3757     0.8722 C.ar    
  12 C12            4.3337    -0.9322     0.9378 C.ar    
  13 C13           -0.9212    -1.2636    -0.0331 C.ar    
  14 C14           -0.6069    -2.6026    -0.1099 C.ar    
  15 C15            0.7187    -3.0079    -0.1713 C.ar    
  16 C16            1.7391    -2.0822    -0.1579 C.ar    
  17 O17           -1.3429     1.5360     0.1155 O.2     
  18 C18            0.7355     3.5041     0.1546 C.2     
  19 O19            1.6864     4.2522     0.2805 O.2     
  20 N20           -0.5132     4.0067     0.0882 N.am    
  21 O21            7.6935    -1.5448    -0.3155 O.3     
  22 C22           -1.7076    -3.6318    -0.1268 C.3     
  23 C23           -2.1252    -3.9081    -1.5726 C.3     
  24 C24           -3.2259    -4.9373    -1.5895 C.ar    
  25 N25           -5.4960    -5.4862    -1.5458 N.ar    
  26 C26           -5.1789    -6.7633    -1.6196 C.ar    
  27 N27           -3.9246    -7.1646    -1.6734 N.ar    
  28 C28           -2.9318    -6.2898    -1.6606 C.ar    
  29 C29           -4.5566    -4.5543    -1.5286 C.ar    
  30 C30           -6.2796    -7.7925    -1.6366 C.3     
  31 C31            8.1913    -2.2635     0.8149 C.3     
  32 H32            3.0656     2.2102     0.0156 H       
  33 H33            4.1267     0.5788    -2.0832 H       
  34 H34            6.4569    -0.2038    -2.1934 H       
  35 H35            6.0656    -1.9238     1.6994 H       
  36 H36            3.7385    -1.1331     1.8163 H       
  37 H37           -1.9535    -0.9498     0.0153 H       
  38 H38            0.9531    -4.0604    -0.2309 H       
  39 H39            2.7669    -2.4104    -0.2065 H       
  40 H40           -1.2643     3.4181    -0.0860 H       
  41 H41           -0.6609     4.9570     0.2146 H       
  42 H42           -1.3496    -4.5541     0.3306 H       
  43 H43           -2.5641    -3.2570     0.4335 H       
  44 H44           -2.4832    -2.9857    -2.0299 H       
  45 H45           -1.2687    -4.2829    -2.1329 H       
  46 H46           -1.9062    -6.6253    -1.7052 H       
  47 H47           -4.8232    -3.5095    -1.4676 H       
  48 H48           -6.5771    -7.9893    -2.6666 H       
  49 H49           -5.9216    -8.7149    -1.1792 H       
  50 H50           -7.1361    -7.4177    -1.0763 H       
  51 H51            8.1371    -1.6304     1.7005 H       
  52 H52            7.5888    -3.1584     0.9705 H       
  53 H53            9.2277    -2.5498     0.6357 H       
@<TRIPOS>BOND
   1    1    2 1
   2    1    6 1
   3    1   17 2
   4    2    3 ar
   5    2   13 ar
   6    3    4 1
   7    3   16 ar
   8    4    5 1
   9    4    7 1
  10    5    6 2
  11    5   32 1
  12    6   18 1
  13    7    8 ar
  14    7   12 ar
  15    8    9 ar
  16    8   33 1
  17    9   10 ar
  18    9   34 1
  19   10   11 ar
  20   10   21 1
  21   11   12 ar
  22   11   35 1
  23   12   36 1
  24   13   14 ar
  25   13   37 1
  26   14   15 ar
  27   14   22 1
  28   15   16 ar
  29   15   38 1
  30   16   39 1
  31   18   19 2
  32   18   20 am
  33   20   40 1
  34   20   41 1
  35   21   31 1
  36   22   23 1
  37   22   42 1
  38   22   43 1
  39   23   24 1
  40   23   44 1
  41   23   45 1
  42   24   29 ar
  43   24   28 ar
  44   25   26 ar
  45   25   29 ar
  46   26   27 ar
  47   26   30 1
  48   27   28 ar
  49   28   46 1
  50   29   47 1
  51   30   48 1
  52   30   49 1
  53   30   50 1
  54   31   51 1
  55   31   52 1
  56   31   53 1

#	End of record

