#	Name: ASD01885546
#	Creating user name:	WinNT
#	Creation time:	15. 06. 2019 19:49

#	Modifying user name:	WinNT
#	Modification time:	15. 06. 2019 19:49

#	Program:	/corina/corina34_cracker 3.40 0067  02.08.2006

@<TRIPOS>MOLECULE
ASD01885546
  48   51    0    0    0
SMALL
NO_CHARGES


@<TRIPOS>ATOM
   1 C1            -0.1077     1.4380    -0.6263 C.ar    
   2 C2            -0.1192     0.0595    -0.8374 C.ar    
   3 C3            -1.2742    -0.6611    -0.6166 C.ar    
   4 C4            -2.4250    -0.0162    -0.1850 C.ar    
   5 C5            -2.4177     1.3575     0.0261 C.ar    
   6 C6            -1.2640     2.0830    -0.1865 C.ar    
   7 C7             1.1315     2.2148    -0.8627 C.2     
   8 C8             2.2784     1.9928    -0.0620 C.2     
   9 C9             3.4031     2.7001    -0.2781 C.2     
  10 N10            3.4595     3.6393    -1.2673 N.pl3   
  11 C11            2.3690     3.8847    -2.0665 C.2     
  12 C12            1.1814     3.1595    -1.8705 C.2     
  13 C13            4.4363     4.4824    -1.7028 C.2     
  14 N14            3.9437     5.1767    -2.6958 N.2     
  15 N15            2.7243     4.8330    -2.9199 N.2     
  16 C16            5.8308     4.5948    -1.1426 C.3     
  17 O17           -3.5612    -0.7293     0.0311 O.3     
  18 C18           -3.4680    -2.1503    -0.0884 C.3     
  19 C19           -4.5682    -2.8083     0.7500 C.3     
  20 C20           -4.5100    -4.3254     0.5538 C.3     
  21 O21           -4.6532    -4.6307    -0.8349 O.3     
  22 C22           -3.6257    -4.0811    -1.6621 C.3     
  23 C23           -3.6483    -2.5541    -1.5549 C.3     
  24 Cl24          -3.8599     2.1599     0.5647 Cl      
  25 C25            6.7569     3.6269    -1.8817 C.3     
  26 F26            6.7743     3.9464    -3.2437 F       
  27 F27            8.0514     3.7313    -1.3617 F       
  28 F28            6.2918     2.3180    -1.7157 F       
  29 C29           -0.0236     3.4164    -2.7383 C.3     
  30 F30           -0.7548     4.4884    -2.2154 F       
  31 F31            0.3944     3.7264    -4.0369 F       
  32 F32           -0.8291     2.2729    -2.7682 F       
  33 H33            0.7755    -0.4432    -1.1738 H       
  34 H34           -1.2833    -1.7287    -0.7800 H       
  35 H35           -1.2584     3.1504    -0.0221 H       
  36 H36            2.2504     1.2537     0.7250 H       
  37 H37            4.2716     2.5226     0.3389 H       
  38 H38            6.1931     5.6147    -1.2720 H       
  39 H39            5.8172     4.3459    -0.0815 H       
  40 H40           -2.4920    -2.4826     0.2653 H       
  41 H41           -4.4150    -2.5710     1.8028 H       
  42 H42           -5.5416    -2.4366     0.4298 H       
  43 H43           -3.5517    -4.7018     0.9117 H       
  44 H44           -5.3178    -4.7957     1.1145 H       
  45 H45           -2.6558    -4.4542    -1.3331 H       
  46 H46           -3.7964    -4.3754    -2.6976 H       
  47 H47           -4.6031    -2.1774    -1.9217 H       
  48 H48           -2.8373    -2.1351    -2.1505 H       
@<TRIPOS>BOND
   1    1    2 ar
   2    1    7 1
   3    1    6 ar
   4    2    3 ar
   5    2   33 1
   6    3    4 ar
   7    3   34 1
   8    4    5 ar
   9    4   17 1
  10    5    6 ar
  11    5   24 1
  12    6   35 1
  13    7    8 1
  14    7   12 2
  15    8    9 2
  16    8   36 1
  17    9   10 1
  18    9   37 1
  19   10   11 1
  20   10   13 1
  21   11   12 1
  22   11   15 2
  23   12   29 1
  24   13   14 2
  25   13   16 1
  26   14   15 1
  27   16   25 1
  28   16   38 1
  29   16   39 1
  30   17   18 1
  31   18   19 1
  32   18   23 1
  33   18   40 1
  34   19   20 1
  35   19   41 1
  36   19   42 1
  37   20   21 1
  38   20   43 1
  39   20   44 1
  40   21   22 1
  41   22   23 1
  42   22   45 1
  43   22   46 1
  44   23   47 1
  45   23   48 1
  46   25   26 1
  47   25   27 1
  48   25   28 1
  49   29   30 1
  50   29   31 1
  51   29   32 1

#	End of record

