#	Name: ASD00840111
#	Creating user name:	WinNT
#	Creation time:	15. 06. 2019 18:37

#	Modifying user name:	WinNT
#	Modification time:	15. 06. 2019 18:37

#	Program:	/corina/corina34_cracker 3.40 0067  02.08.2006

@<TRIPOS>MOLECULE
ASD00840111
  87   92    0    0    0
SMALL
NO_CHARGES


@<TRIPOS>ATOM
   1 N1             0.0401     1.3338     0.1145 N.3     
   2 C2            -0.5060     1.7153    -1.1954 C.3     
   3 C3             0.3892     1.1524    -2.3019 C.3     
   4 N4             0.4645    -0.3094    -2.1714 N.3     
   5 C5             1.0106    -0.6909    -0.8614 C.3     
   6 C6             0.1154    -0.1280     0.2450 C.3     
   7 N7            -2.1956     5.0764     3.0978 N.am    
   8 C8            -2.2012     3.7779     2.7536 C.2     
   9 C9            -0.8876     3.1869     3.2192 C.3     
  10 C10           -0.1707     4.3510     3.8646 C.ar    
  11 C11            1.0534     4.4679     4.4738 C.ar    
  12 C12            1.4586     5.7035     4.9900 C.ar    
  13 C13            0.6069     6.8096     4.8783 C.ar    
  14 C14           -0.6201     6.6792     4.2647 C.ar    
  15 C15           -1.0227     5.4464     3.7499 C.ar    
  16 O16           -3.0918     3.1894     2.1779 O.2     
  17 F17            0.9889     8.0071     5.3736 F       
  18 C18           -1.1285     2.0913     4.2256 C.ar    
  19 C19           -1.9555     1.0241     3.9056 C.ar    
  20 C20           -2.1753     0.0173     4.8341 C.ar    
  21 C21           -1.5705     0.0794     6.0748 C.ar    
  22 C22           -0.7474     1.1440     6.3914 C.ar    
  23 C23           -0.5218     2.1458     5.4653 C.ar    
  24 O24           -2.5495     0.9656     2.6847 O.3     
  25 C25           -3.3878    -0.1621     2.4245 C.3     
  26 C26           -3.9635    -0.0543     1.0110 C.3     
  27 C27            2.7338     5.8360     5.6280 C.1     
  28 N28            3.7454     5.9411     6.1341 N.1     
  29 S29           -3.4403     6.1204     2.7767 S.o2    
  30 O30           -2.8775     7.4252     2.7684 O.2     
  31 O31           -4.1490     5.5727     1.6736 O.2     
  32 C32           -4.5390     6.0612     4.1529 C.ar    
  33 C33           -4.3610     6.9253     5.2172 C.ar    
  34 C34           -5.2229     6.8788     6.2969 C.ar    
  35 C35           -6.2632     5.9685     6.3121 C.ar    
  36 C36           -6.4417     5.1051     5.2475 C.ar    
  37 C37           -5.5824     5.1545     4.1658 C.ar    
  38 C38           -0.0981     2.6647     2.0467 C.2     
  39 O39            1.0744     2.9516     1.9289 O.2     
  40 N40           -0.6949     1.8787     1.1288 N.am    
  41 N41            1.4579    -2.7727    -5.4468 N.3     
  42 C42            2.1882    -3.0145    -4.1960 C.3     
  43 C43            1.4165    -2.3996    -3.0262 C.3     
  44 C44            1.2550    -0.8953    -3.2621 C.3     
  45 C45            0.5345    -0.6701    -4.5943 C.3     
  46 C46            1.3317    -1.3352    -5.7187 C.3     
  47 C47            2.0973    -3.4672    -6.5723 C.3     
  48 C48            1.1833    -3.4017    -7.7976 C.3     
  49 H49           -1.5128     1.3112    -1.3014 H       
  50 H50           -0.5400     2.8020    -1.2728 H       
  51 H51           -0.0298     1.4096    -3.2747 H       
  52 H52            1.3889     1.5775    -2.2123 H       
  53 H53            1.0446    -1.7776    -0.7841 H       
  54 H54            2.0173    -0.2867    -0.7555 H       
  55 H55            0.5344    -0.3851     1.2179 H       
  56 H56           -0.8843    -0.5530     0.1554 H       
  57 H57            1.7021     3.6082     4.5548 H       
  58 H58           -1.2731     7.5354     4.1816 H       
  59 H59           -2.8188    -0.8142     4.5875 H       
  60 H60           -1.7413    -0.7043     6.7981 H       
  61 H61           -0.2762     1.1910     7.3620 H       
  62 H62            0.1255     2.9741     5.7132 H       
  63 H63           -2.8022    -1.0775     2.5095 H       
  64 H64           -4.2027    -0.1837     3.1480 H       
  65 H65           -4.6029    -0.9144     0.8126 H       
  66 H66           -4.5491     0.8611     0.9261 H       
  67 H67           -3.1485    -0.0327     0.2875 H       
  68 H68           -3.5483     7.6365     5.2052 H       
  69 H69           -5.0834     7.5534     7.1286 H       
  70 H70           -6.9362     5.9317     7.1560 H       
  71 H71           -7.2542     4.3937     5.2596 H       
  72 H72           -5.7241     4.4824     3.3324 H       
  73 H73           -1.6465     1.6999     1.1884 H       
  74 H74            2.2925    -4.0879    -4.0380 H       
  75 H75            3.1765    -2.5590    -4.2585 H       
  76 H76            0.4332    -2.8643    -2.9544 H       
  77 H77            1.9666    -2.5656    -2.0999 H       
  78 H78            2.2373    -0.4240    -3.2940 H       
  79 H79           -0.4627    -1.1077    -4.5473 H       
  80 H80            0.4544     0.3995    -4.7885 H       
  81 H81            2.3241    -0.8876    -5.7741 H       
  82 H82            0.8140    -1.1889    -6.6666 H       
  83 H83            3.0484    -2.9871    -6.8025 H       
  84 H84            2.2717    -4.5093    -6.3045 H       
  85 H85            0.2322    -3.8818    -7.5675 H       
  86 H86            1.0089    -2.3596    -8.0655 H       
  87 H87            1.6577    -3.9170    -8.6328 H       
@<TRIPOS>BOND
   1    1    2 1
   2    1    6 1
   3    1   40 1
   4    2    3 1
   5    2   49 1
   6    2   50 1
   7    3    4 1
   8    3   51 1
   9    3   52 1
  10    4    5 1
  11    4   44 1
  12    5    6 1
  13    5   53 1
  14    5   54 1
  15    6   55 1
  16    6   56 1
  17    7    8 am
  18    7   15 1
  19    7   29 am
  20    8    9 1
  21    8   16 2
  22    9   10 1
  23    9   18 1
  24    9   38 1
  25   10   11 ar
  26   10   15 ar
  27   11   12 ar
  28   11   57 1
  29   12   13 ar
  30   12   27 1
  31   13   14 ar
  32   13   17 1
  33   14   15 ar
  34   14   58 1
  35   18   19 ar
  36   18   23 ar
  37   19   20 ar
  38   19   24 1
  39   20   21 ar
  40   20   59 1
  41   21   22 ar
  42   21   60 1
  43   22   23 ar
  44   22   61 1
  45   23   62 1
  46   24   25 1
  47   25   26 1
  48   25   63 1
  49   25   64 1
  50   26   65 1
  51   26   66 1
  52   26   67 1
  53   27   28 3
  54   29   30 2
  55   29   31 2
  56   29   32 1
  57   32   33 ar
  58   32   37 ar
  59   33   34 ar
  60   33   68 1
  61   34   35 ar
  62   34   69 1
  63   35   36 ar
  64   35   70 1
  65   36   37 ar
  66   36   71 1
  67   37   72 1
  68   38   39 2
  69   38   40 am
  70   40   73 1
  71   41   42 1
  72   41   46 1
  73   41   47 1
  74   42   43 1
  75   42   74 1
  76   42   75 1
  77   43   44 1
  78   43   76 1
  79   43   77 1
  80   44   45 1
  81   44   78 1
  82   45   46 1
  83   45   79 1
  84   45   80 1
  85   46   81 1
  86   46   82 1
  87   47   48 1
  88   47   83 1
  89   47   84 1
  90   48   85 1
  91   48   86 1
  92   48   87 1

#	End of record

