#	Name: ASD01900014
#	Creating user name:	WinNT
#	Creation time:	15. 06. 2019 19:51

#	Modifying user name:	WinNT
#	Modification time:	15. 06. 2019 19:51

#	Program:	/corina/corina34_cracker 3.40 0067  02.08.2006

@<TRIPOS>MOLECULE
ASD01900014
  45   48    0    0    0
SMALL
NO_CHARGES


@<TRIPOS>ATOM
   1 C1             0.2217     1.2199    -0.3843 C.ar    
   2 C2             0.1900    -0.1572    -0.2332 C.ar    
   3 C3             1.3561    -0.8673    -0.0185 C.ar    
   4 C4             2.5651    -0.1962     0.0454 C.ar    
   5 C5             2.5997     1.2024    -0.0946 C.ar    
   6 C6             1.4176     1.9048    -0.3166 C.ar    
   7 N7             3.7673    -0.8693     0.2332 N.pl3   
   8 C8             4.8681    -0.1729     0.9089 C.3     
   9 N9             4.9839     1.1979     0.4109 N.am    
  10 C10            3.8983     1.8902     0.0120 C.2     
  11 C11            6.2440     1.8011     0.3475 C.ar    
  12 C12            4.6003    -0.1436     2.4150 C.3     
  13 C13            4.3723    -1.5696     2.9202 C.3     
  14 C14            5.7864     0.4571     3.1245 C.ar    
  15 O15            3.9900     3.0724    -0.2580 O.2     
  16 C16            5.6411     1.6290     3.8432 C.ar    
  17 C17            6.7291     2.1801     4.4940 C.ar    
  18 C18            7.9622     1.5589     4.4266 C.ar    
  19 C19            8.1072     0.3865     3.7087 C.ar    
  20 C20            7.0183    -0.1668     3.0614 C.ar    
  21 C21            7.2350     1.2583    -0.4591 C.ar    
  22 C22            8.4803     1.8579    -0.5197 C.ar    
  23 C23            8.7374     2.9979     0.2235 C.ar    
  24 C24            7.7512     3.5390     1.0275 C.ar    
  25 C25            6.5046     2.9478     1.0873 C.ar    
  26 F26            9.4461     1.3309    -1.3038 F       
  27 H27           -0.6963     1.7608    -0.5609 H       
  28 H28           -0.7538    -0.6798    -0.2832 H       
  29 H29            1.3242    -1.9404     0.0990 H       
  30 H30            1.4370     2.9780    -0.4356 H       
  31 H31            3.8761    -1.7821    -0.0763 H       
  32 H32            5.8008    -0.7048     0.7212 H       
  33 H33            3.7141     0.4588     2.6148 H       
  34 H34            4.1814    -1.5488     3.9932 H       
  35 H35            3.5144    -2.0041     2.4070 H       
  36 H36            5.2585    -2.1719     2.7205 H       
  37 H37            4.6777     2.1143     3.8958 H       
  38 H38            6.6158     3.0960     5.0548 H       
  39 H39            8.8124     1.9898     4.9345 H       
  40 H40            9.0707    -0.0986     3.6557 H       
  41 H41            7.1316    -1.0828     2.5006 H       
  42 H42            7.0341     0.3691    -1.0382 H       
  43 H43            9.7100     3.4649     0.1752 H       
  44 H44            7.9547     4.4279     1.6062 H       
  45 H45            5.7353     3.3716     1.7158 H       
@<TRIPOS>BOND
   1    1    2 ar
   2    1    6 ar
   3    1   27 1
   4    2    3 ar
   5    2   28 1
   6    3    4 ar
   7    3   29 1
   8    4    5 ar
   9    4    7 1
  10    5    6 ar
  11    5   10 1
  12    6   30 1
  13    7    8 1
  14    7   31 1
  15    8    9 1
  16    8   12 1
  17    8   32 1
  18    9   10 am
  19    9   11 1
  20   10   15 2
  21   11   21 ar
  22   11   25 ar
  23   12   13 1
  24   12   14 1
  25   12   33 1
  26   13   34 1
  27   13   35 1
  28   13   36 1
  29   14   16 ar
  30   14   20 ar
  31   16   17 ar
  32   16   37 1
  33   17   18 ar
  34   17   38 1
  35   18   19 ar
  36   18   39 1
  37   19   20 ar
  38   19   40 1
  39   20   41 1
  40   21   22 ar
  41   21   42 1
  42   22   23 ar
  43   22   26 1
  44   23   24 ar
  45   23   43 1
  46   24   25 ar
  47   24   44 1
  48   25   45 1

#	End of record

