#	Name: ASD02448167
#	Creating user name:	WinNT
#	Creation time:	15. 06. 2019 20:21

#	Modifying user name:	WinNT
#	Modification time:	15. 06. 2019 20:21

#	Program:	/corina/corina34_cracker 3.40 0067  02.08.2006

@<TRIPOS>MOLECULE
ASD02448167
  63   68    0    0    0
SMALL
NO_CHARGES


@<TRIPOS>ATOM
   1 C1            -0.1647     1.5447     0.1462 C.ar    
   2 C2            -0.0681     0.1687     0.0696 C.ar    
   3 C3             1.1794    -0.4418     0.0534 C.ar    
   4 C4             2.3292     0.3311     0.1143 C.ar    
   5 C5             2.2294     1.7135     0.1912 C.ar    
   6 C6             0.9786     2.3182     0.2070 C.ar    
   7 N7             3.3850     2.4956     0.2532 N.am    
   8 C8             3.5495     3.8967    -0.1553 C.3     
   9 C9             4.9489     4.3691     0.0743 C.2     
  10 N10            5.7731     3.4502     0.5969 N.am    
  11 S11            4.8927     2.0544     0.8149 S.o2    
  12 O12            5.3105     5.4957    -0.1919 O.2     
  13 O13            4.7810     1.8436     2.2158 O.2     
  14 O14            5.4048     1.0894    -0.0938 O.2     
  15 N15            1.2761    -1.8384    -0.0239 N.pl3   
  16 C16            1.9611    -2.5538    -0.9695 C.2     
  17 C17            0.7123    -2.7336     0.8292 C.2     
  18 N18            1.0246    -3.9388     0.4424 N.2     
  19 C19            1.7935    -3.8666    -0.6632 C.2     
  20 C20            2.3562    -5.0169    -1.4123 C.ar    
  21 C21            2.1042    -6.3208    -0.9855 C.ar    
  22 C22            3.1333    -4.7988    -2.5479 C.ar    
  23 C23            3.6546    -5.8723    -3.2415 C.ar    
  24 C24            3.4064    -7.1643    -2.8113 C.ar    
  25 C25            2.6306    -7.3876    -1.6866 C.ar    
  26 Cl26           4.0649    -8.5097    -3.6889 Cl      
  27 Cl27           1.1314    -6.6017     0.4247 Cl      
  28 C28            0.7282    -2.3584     3.2613 C.ar    
  29 C29            1.4210    -1.2079     3.5902 C.ar    
  30 C30            2.2092    -1.1751     4.7241 C.ar    
  31 C31            2.3049    -2.2980     5.5337 C.ar    
  32 C32            1.6083    -3.4511     5.2016 C.ar    
  33 C33            0.8219    -3.4787     4.0662 C.ar    
  34 O34            3.0799    -2.2685     6.6495 O.3     
  35 C35           -0.1354    -2.3894     2.0267 C.3     
  36 C36            3.6528    -1.0864     6.9972 C.ar    
  37 C37            2.8860    -0.0870     7.5789 C.ar    
  38 C38            3.4709     1.1138     7.9315 C.ar    
  39 C39            4.8192     1.3202     7.7051 C.ar    
  40 C40            5.5856     0.3261     7.1252 C.ar    
  41 C41            5.0069    -0.8788     6.7764 C.ar    
  42 H42           -1.1359     2.0171     0.1540 H       
  43 H43           -0.9637    -0.4330     0.0225 H       
  44 H44            3.3002    -0.1416     0.1023 H       
  45 H45            0.8999     3.3936     0.2669 H       
  46 H46            3.3105     3.9901    -1.2147 H       
  47 H47            2.8638     4.5191     0.4196 H       
  48 H48            6.7106     3.5765     0.8117 H       
  49 H49            2.5250    -2.1521    -1.7984 H       
  50 H50            3.3272    -3.7913    -2.8852 H       
  51 H51            4.2571    -5.7038    -4.1218 H       
  52 H52            2.4401    -8.3976    -1.3548 H       
  53 H53            1.3462    -0.3342     2.9597 H       
  54 H54            2.7507    -0.2765     4.9802 H       
  55 H55            1.6811    -4.3264     5.8300 H       
  56 H56            0.2792    -4.3759     3.8075 H       
  57 H57           -0.5931    -1.4113     1.8788 H       
  58 H58           -0.9155    -3.1410     2.1477 H       
  59 H59            1.8327    -0.2476     7.7556 H       
  60 H60            2.8744     1.8922     8.3839 H       
  61 H61            5.2746     2.2597     7.9815 H       
  62 H62            6.6384     0.4901     6.9488 H       
  63 H63            5.6060    -1.6551     6.3238 H       
@<TRIPOS>BOND
   1    1    2 ar
   2    1    6 ar
   3    1   42 1
   4    2    3 ar
   5    2   43 1
   6    3    4 ar
   7    3   15 1
   8    4    5 ar
   9    4   44 1
  10    5    6 ar
  11    5    7 1
  12    6   45 1
  13    7    8 1
  14    7   11 am
  15    8    9 1
  16    8   46 1
  17    8   47 1
  18    9   10 am
  19    9   12 2
  20   10   11 am
  21   10   48 1
  22   11   13 2
  23   11   14 2
  24   15   16 1
  25   15   17 1
  26   16   19 2
  27   16   49 1
  28   17   18 2
  29   17   35 1
  30   18   19 1
  31   19   20 1
  32   20   21 ar
  33   20   22 ar
  34   21   27 1
  35   21   25 ar
  36   22   23 ar
  37   22   50 1
  38   23   24 ar
  39   23   51 1
  40   24   25 ar
  41   24   26 1
  42   25   52 1
  43   28   29 ar
  44   28   33 ar
  45   28   35 1
  46   29   30 ar
  47   29   53 1
  48   30   31 ar
  49   30   54 1
  50   31   32 ar
  51   31   34 1
  52   32   33 ar
  53   32   55 1
  54   33   56 1
  55   34   36 1
  56   35   57 1
  57   35   58 1
  58   36   37 ar
  59   36   41 ar
  60   37   38 ar
  61   37   59 1
  62   38   39 ar
  63   38   60 1
  64   39   40 ar
  65   39   61 1
  66   40   41 ar
  67   40   62 1
  68   41   63 1

#	End of record

