#	Name: ASD05740114
#	Creating user name:	WinNT
#	Creation time:	15. 06. 2019 21:02

#	Modifying user name:	WinNT
#	Modification time:	15. 06. 2019 21:02

#	Program:	/corina/corina34_cracker 3.40 0067  02.08.2006

@<TRIPOS>MOLECULE
ASD05740114
  44   47    0    0    0
SMALL
NO_CHARGES


@<TRIPOS>ATOM
   1 C1            -0.0099     1.5061     0.0604 C.3     
   2 N2            -2.6054     1.2693    -2.1159 N.ar    
   3 C3             1.2870    -0.7382     0.0207 C.2     
   4 C4             1.2351    -2.1953    -0.0171 C.2     
   5 C5             0.0083    -0.0003     0.0222 C.2     
   6 C6            -1.1477    -0.7043    -0.0110 C.2     
   7 C7            -1.1281    -2.1108    -0.0457 C.2     
   8 O8             0.0122    -2.8105    -0.0481 O.3     
   9 C9            -2.4666     0.0247    -0.0102 C.3     
  10 C10           -2.9472     0.1950    -1.4284 C.ar    
  11 N11           -3.7116    -0.7321    -1.9829 N.ar    
  12 O12           -2.1866    -2.7125    -0.0742 O.2     
  13 C13           -3.0302     1.4188    -3.3678 C.ar    
  14 N14           -3.7980     0.4845    -3.9218 N.ar    
  15 C15           -4.1360    -0.5870    -3.2276 C.ar    
  16 N16           -2.6753     2.5399    -4.0895 N.am    
  17 S17           -3.4827     2.9159    -5.4855 S.o2    
  18 O18           -2.9127     4.1259    -5.9654 O.2     
  19 O19           -3.5326     1.7218    -6.2542 O.2     
  20 C20            2.4609    -2.7504    -0.0151 C.2     
  21 S21            3.7079    -1.5211     0.0326 S.3     
  22 C22            2.5697    -0.2572     0.0440 C.2     
  23 O23            2.6999    -4.0888    -0.0456 O.3     
  24 C24            3.9846    -4.5030    -0.1650 C.2     
  25 N25            4.3760    -5.7361    -0.0966 N.2     
  26 S26            5.3238    -3.4751    -0.4349 S.3     
  27 C27            6.4052    -4.8658    -0.4321 C.2     
  28 C28            5.6698    -5.9612    -0.2354 C.2     
  29 N29           -5.0458     3.2688    -5.0679 N.am    
  30 C30           -5.3352     4.4388    -4.2351 C.3     
  31 H31            1.0132     1.8814     0.0839 H       
  32 H32           -0.5160     1.8860    -0.8271 H       
  33 H33           -0.5401     1.8406     0.9521 H       
  34 H34           -3.1995    -0.5509     0.5551 H       
  35 H35           -2.3400     1.0043     0.4506 H       
  36 H36           -4.7594    -1.3460    -3.6767 H       
  37 H37           -1.9528     3.1079    -3.7791 H       
  38 H38            2.8256     0.7917     0.0720 H       
  39 H39            7.4761    -4.8369    -0.5691 H       
  40 H40            6.0980    -6.9517    -0.1913 H       
  41 H41           -5.7699     2.7008    -5.3746 H       
  42 H42           -6.4099     4.5080    -4.0666 H       
  43 H43           -4.8230     4.3393    -3.2781 H       
  44 H44           -4.9880     5.3397    -4.7410 H       
@<TRIPOS>BOND
   1    1    5 1
   2    1   31 1
   3    1   32 1
   4    1   33 1
   5    2   10 ar
   6    2   13 ar
   7    3    4 1
   8    3    5 1
   9    3   22 2
  10    4   20 2
  11    4    8 1
  12    5    6 2
  13    6    7 1
  14    6    9 1
  15    7    8 1
  16    7   12 2
  17    9   10 1
  18    9   34 1
  19    9   35 1
  20   10   11 ar
  21   11   15 ar
  22   13   14 ar
  23   13   16 1
  24   14   15 ar
  25   15   36 1
  26   16   17 am
  27   16   37 1
  28   17   18 2
  29   17   19 2
  30   17   29 am
  31   20   21 1
  32   20   23 1
  33   21   22 1
  34   22   38 1
  35   23   24 1
  36   24   25 2
  37   24   26 1
  38   25   28 1
  39   26   27 1
  40   27   28 2
  41   27   39 1
  42   28   40 1
  43   29   30 1
  44   29   41 1
  45   30   42 1
  46   30   43 1
  47   30   44 1

#	End of record

