#	Name: ASD01813579
#	Creating user name:	WinNT
#	Creation time:	15. 06. 2019 19:30

#	Modifying user name:	WinNT
#	Modification time:	15. 06. 2019 19:30

#	Program:	/corina/corina34_cracker 3.40 0067  02.08.2006

@<TRIPOS>MOLECULE
ASD01813579
  49   53    0    0    0
SMALL
NO_CHARGES


@<TRIPOS>ATOM
   1 C1            -0.0168     1.3825    -0.0436 C.ar    
   2 C2             0.0020    -0.0038    -0.0506 C.ar    
   3 C3             1.1975    -0.6932    -0.0477 C.ar    
   4 C4             2.4040     0.0044    -0.0380 C.ar    
   5 C5             2.3834     1.4096    -0.0313 C.ar    
   6 C6             1.1657     2.0946    -0.0340 C.ar    
   7 N7             3.6050    -0.6734    -0.0339 N.pl3   
   8 C8             4.7898    -0.0496    -0.0237 C.2     
   9 C9             4.8962     1.3266    -0.0160 C.2     
  10 C10            3.6660     2.1351    -0.0211 C.2     
  11 O11            3.7066     3.3531    -0.0152 O.2     
  12 C12            6.2155     1.9737    -0.0039 C.2     
  13 O13            6.3065     3.3187     0.0036 O.3     
  14 O14            7.2249     1.2962    -0.0005 O.2     
  15 C15            3.5837    -2.1382    -0.0406 C.3     
  16 C16            3.4403    -2.6321    -1.4571 C.ar    
  17 N17            2.2402    -2.7346    -1.9912 N.ar    
  18 C18            2.0668    -3.1642    -3.2348 C.ar    
  19 C19            3.1612    -3.5228    -4.0191 C.ar    
  20 C20            4.4336    -3.4249    -3.4831 C.ar    
  21 C21            4.5702    -2.9660    -2.1806 C.ar    
  22 F22            1.1984    -2.0441    -0.0538 F       
  23 F23            1.1457     3.4455    -0.0280 F       
  24 C24            0.6971    -3.2639    -3.7940 C.ar    
  25 C25           -0.4026    -2.9075    -3.0158 C.ar    
  26 C26           -1.6805    -3.0012    -3.5402 C.ar    
  27 C27           -1.8646    -3.4482    -4.8448 C.ar    
  28 C28           -0.7678    -3.8040    -5.6185 C.ar    
  29 C29            0.5070    -3.7088    -5.1014 C.ar    
  30 O30           -2.7455    -2.6569    -2.7652 O.3     
  31 C31           -3.9814    -2.4076    -3.4434 C.3     
  32 C32           -4.2090    -3.5363    -4.4580 C.3     
  33 O33           -3.1131    -3.5390    -5.3790 O.3     
  34 H34           -0.9606     1.9075    -0.0501 H       
  35 H35           -0.9295    -0.5504    -0.0582 H       
  36 H36            5.6921    -0.6430    -0.0211 H       
  37 H37            7.1957     3.6986     0.0115 H       
  38 H38            4.5134    -2.5171     0.3839 H       
  39 H39            2.7418    -2.4920     0.5545 H       
  40 H40            3.0187    -3.8727    -5.0309 H       
  41 H41            5.3009    -3.6960    -4.0668 H       
  42 H42            5.5494    -2.8782    -1.7335 H       
  43 H43           -0.2581    -2.5587    -2.0040 H       
  44 H44           -0.9134    -4.1527    -6.6303 H       
  45 H45            1.3575    -3.9863    -5.7065 H       
  46 H46           -4.7991    -2.3906    -2.7229 H       
  47 H47           -3.9289    -1.4511    -3.9633 H       
  48 H48           -4.2551    -4.4936    -3.9387 H       
  49 H49           -5.1411    -3.3643    -4.9962 H       
@<TRIPOS>BOND
   1    1    2 ar
   2    1    6 ar
   3    1   34 1
   4    2    3 ar
   5    2   35 1
   6    3    4 ar
   7    3   22 1
   8    4    5 ar
   9    4    7 1
  10    5    6 ar
  11    5   10 1
  12    6   23 1
  13    7    8 1
  14    7   15 1
  15    8    9 2
  16    8   36 1
  17    9   10 1
  18    9   12 1
  19   10   11 2
  20   12   13 1
  21   12   14 2
  22   13   37 1
  23   15   16 1
  24   15   38 1
  25   15   39 1
  26   16   17 ar
  27   16   21 ar
  28   17   18 ar
  29   18   19 ar
  30   18   24 1
  31   19   20 ar
  32   19   40 1
  33   20   21 ar
  34   20   41 1
  35   21   42 1
  36   24   25 ar
  37   24   29 ar
  38   25   26 ar
  39   25   43 1
  40   26   27 ar
  41   26   30 1
  42   27   28 ar
  43   27   33 1
  44   28   29 ar
  45   28   44 1
  46   29   45 1
  47   30   31 1
  48   31   32 1
  49   31   46 1
  50   31   47 1
  51   32   33 1
  52   32   48 1
  53   32   49 1

#	End of record

