#	Name: ASD00460034
#	Creating user name:	WinNT
#	Creation time:	15. 06. 2019 18:36

#	Modifying user name:	WinNT
#	Modification time:	15. 06. 2019 18:36

#	Program:	/corina/corina34_cracker 3.40 0067  02.08.2006

@<TRIPOS>MOLECULE
ASD00460034
  77   81    0    0    0
SMALL
NO_CHARGES


@<TRIPOS>ATOM
   1 O1             1.0852    -0.3261     1.6600 O.2     
   2 C2             1.0284     0.8848     1.7530 C.2     
   3 N3             2.0397     1.6445     1.2876 N.am    
   4 C4             3.2073     1.0112     0.6696 C.3     
   5 C5             2.9691     0.8595    -0.8341 C.3     
   6 C6             4.1885     0.1981    -1.4795 C.3     
   7 C7             4.3340    -1.2072    -0.9551 C.ar    
   8 C8             3.2597    -2.0760    -0.9987 C.ar    
   9 C9             3.3932    -3.3650    -0.5177 C.ar    
  10 C10            4.6012    -3.7855     0.0066 C.ar    
  11 C11            5.6758    -2.9170     0.0494 C.ar    
  12 C12            5.5435    -1.6293    -0.4356 C.ar    
  13 C13            4.0066     0.1599    -2.9749 C.ar    
  14 C14            5.0011     0.6428    -3.8048 C.ar    
  15 C15            4.8342     0.6078    -5.1765 C.ar    
  16 C16            3.6730     0.0895    -5.7185 C.ar    
  17 C17            2.6788    -0.3942    -4.8888 C.ar    
  18 C18            2.8475    -0.3632    -3.5171 C.ar    
  19 C19            1.9714     3.1036     1.3996 C.3     
  20 C20            2.5923     3.5428     2.7272 C.3     
  21 N21            2.5237     5.0059     2.8396 N.3     
  22 C22            2.8903     5.4481     4.1928 C.3     
  23 C23            2.8636     6.9779     4.2487 C.3     
  24 O24            1.5677     7.4415     3.8601 O.3     
  25 C25            1.1788     7.0296     2.5469 C.3     
  26 C26            1.1885     5.5004     2.4738 C.3     
  27 N27           -0.0482     1.4677     2.3165 N.am    
  28 C28           -1.0937     0.6845     2.7913 C.2     
  29 N29           -2.1729     1.1357     3.3490 N.2     
  30 C30           -3.0699     0.2333     3.7440 C.2     
  31 C31           -2.7351    -1.0492     3.5097 C.2     
  32 S32           -1.1597    -1.0737     2.7211 S.3     
  33 Cl33          -3.6942    -2.4399     3.9093 Cl      
  34 C34           -4.3459     0.6145     4.3957 C.ar    
  35 C35           -4.3935     1.7147     5.2507 C.ar    
  36 C36           -5.5841     2.0651     5.8541 C.ar    
  37 C37           -6.7288     1.3271     5.6120 C.ar    
  38 C38           -6.6875     0.2341     4.7649 C.ar    
  39 C39           -5.5039    -0.1223     4.1514 C.ar    
  40 S40           -8.2453     1.7806     6.3860 S.o2    
  41 O41           -9.0466     0.6074     6.4168 O.2     
  42 O42           -7.8970     2.5146     7.5518 O.2     
  43 N43           -9.0126     2.8445     5.3753 N.am    
  44 H44            4.0881     1.6311     0.8372 H       
  45 H45            3.3650     0.0282     1.1135 H       
  46 H46            2.0883     0.2396    -1.0017 H       
  47 H47            2.8114     1.8425    -1.2780 H       
  48 H48            5.0835     0.7709    -1.2368 H       
  49 H49            2.3159    -1.7475    -1.4083 H       
  50 H50            2.5536    -4.0436    -0.5511 H       
  51 H51            4.7053    -4.7924     0.3831 H       
  52 H52            6.6195    -3.2454     0.4593 H       
  53 H53            6.3831    -0.9508    -0.4022 H       
  54 H54            5.9084     1.0477    -3.3813 H       
  55 H55            5.6109     0.9858    -5.8248 H       
  56 H56            3.5423     0.0628    -6.7903 H       
  57 H57            1.7714    -0.7989    -5.3122 H       
  58 H58            2.0708    -0.7412    -2.8688 H       
  59 H59            2.5198     3.5575     0.5742 H       
  60 H60            0.9297     3.4225     1.3626 H       
  61 H61            2.0438     3.0889     3.5526 H       
  62 H62            3.6339     3.2240     2.7642 H       
  63 H63            2.1781     5.0451     4.9129 H       
  64 H64            3.8923     5.0926     4.4330 H       
  65 H65            3.0790     7.3088     5.2647 H       
  66 H66            3.6135     7.3801     3.5676 H       
  67 H67            0.1757     7.3980     2.3321 H       
  68 H68            1.8797     7.4334     1.8163 H       
  69 H69            0.9482     5.1831     1.4591 H       
  70 H70            0.4491     5.0983     3.1663 H       
  71 H71           -0.0935     2.4338     2.3907 H       
  72 H72           -3.5004     2.2914     5.4406 H       
  73 H73           -5.6221     2.9170     6.5168 H       
  74 H74           -7.5842    -0.3386     4.5799 H       
  75 H75           -5.4727    -0.9757     3.4903 H       
  76 H76           -8.6010     3.0971     4.5341 H       
  77 H77           -9.8736     3.2152     5.6245 H       
@<TRIPOS>BOND
   1    1    2 2
   2    2    3 am
   3    2   27 am
   4    3    4 1
   5    3   19 1
   6    4    5 1
   7    4   44 1
   8    4   45 1
   9    5    6 1
  10    5   46 1
  11    5   47 1
  12    6    7 1
  13    6   13 1
  14    6   48 1
  15    7    8 ar
  16    7   12 ar
  17    8    9 ar
  18    8   49 1
  19    9   10 ar
  20    9   50 1
  21   10   11 ar
  22   10   51 1
  23   11   12 ar
  24   11   52 1
  25   12   53 1
  26   13   14 ar
  27   13   18 ar
  28   14   15 ar
  29   14   54 1
  30   15   16 ar
  31   15   55 1
  32   16   17 ar
  33   16   56 1
  34   17   18 ar
  35   17   57 1
  36   18   58 1
  37   19   20 1
  38   19   59 1
  39   19   60 1
  40   20   21 1
  41   20   61 1
  42   20   62 1
  43   21   22 1
  44   21   26 1
  45   22   23 1
  46   22   63 1
  47   22   64 1
  48   23   24 1
  49   23   65 1
  50   23   66 1
  51   24   25 1
  52   25   26 1
  53   25   67 1
  54   25   68 1
  55   26   69 1
  56   26   70 1
  57   27   28 1
  58   27   71 1
  59   28   29 2
  60   28   32 1
  61   29   30 1
  62   30   31 2
  63   30   34 1
  64   31   32 1
  65   31   33 1
  66   34   35 ar
  67   34   39 ar
  68   35   36 ar
  69   35   72 1
  70   36   37 ar
  71   36   73 1
  72   37   38 ar
  73   37   40 1
  74   38   39 ar
  75   38   74 1
  76   39   75 1
  77   40   41 2
  78   40   42 2
  79   40   43 am
  80   43   76 1
  81   43   77 1

#	End of record

