#	Name: ASD01910443
#	Creating user name:	WinNT
#	Creation time:	15. 06. 2019 19:55

#	Modifying user name:	WinNT
#	Modification time:	15. 06. 2019 19:55

#	Program:	/corina/corina34_cracker 3.40 0067  02.08.2006

@<TRIPOS>MOLECULE
ASD01910443
  47   50    0    0    0
SMALL
NO_CHARGES


@<TRIPOS>ATOM
   1 C1             0.0251     1.3038    -0.0713 C.ar    
   2 C2             0.0579    -0.0814    -0.0810 C.ar    
   3 C3             1.2719    -0.7496    -0.0861 C.ar    
   4 C4             2.4534    -0.0375    -0.0811 C.ar    
   5 C5             2.4249     1.3557    -0.0714 C.ar    
   6 C6             1.2019     2.0237    -0.0667 C.ar    
   7 F7            -1.0969    -0.7825    -0.0850 F       
   8 C8             3.6933     2.1258    -0.0655 C.2     
   9 N9             3.8147     3.4726    -0.0560 N.2     
  10 C10            5.1028     3.7096    -0.0530 C.2     
  11 O11            5.7212     2.5246    -0.0606 O.3     
  12 N12            4.9031     1.6291    -0.0627 N.2     
  13 C13            5.7636     5.0640    -0.0434 C.3     
  14 C14            6.6345     5.1985     1.2079 C.3     
  15 C15            7.2802     6.5858     1.2353 C.3     
  16 C16            8.1750     6.7526     0.0032 C.3     
  17 N17            7.3774     6.4820    -1.2007 N.am    
  18 C18            6.6413     5.2136    -1.2900 C.3     
  19 C19            7.3221     7.3802    -2.2040 C.2     
  20 C20            7.9910     8.6908    -2.0606 C.ar    
  21 O21            6.7222     7.1127    -3.2268 O.2     
  22 C22            9.3490     8.7537    -1.7453 C.ar    
  23 C23            9.9673     9.9802    -1.6128 C.ar    
  24 C24            9.2440    11.1457    -1.7919 C.ar    
  25 C25            7.8970    11.0903    -2.1043 C.ar    
  26 C26            7.2683     9.8707    -2.2457 C.ar    
  27 C27            5.8014     9.8123    -2.5859 C.3     
  28 H28           -0.9232     1.8207    -0.0719 H       
  29 H29            1.2930    -1.8293    -0.0936 H       
  30 H30            3.3991    -0.5590    -0.0844 H       
  31 H31            1.1754     3.1034    -0.0595 H       
  32 H32            4.9997     5.8415    -0.0403 H       
  33 H33            6.0165     5.0680     2.0962 H       
  34 H34            7.4131     4.4359     1.1921 H       
  35 H35            6.5023     7.3494     1.2261 H       
  36 H36            7.8816     6.6894     2.1385 H       
  37 H37            8.5588     7.7721    -0.0344 H       
  38 H38            9.0058     6.0490     0.0569 H       
  39 H39            7.3470     4.3844    -1.3417 H       
  40 H40            6.0132     5.2176    -2.1808 H       
  41 H41            9.9147     7.8445    -1.6048 H       
  42 H42           11.0181    10.0303    -1.3685 H       
  43 H43            9.7326    12.1031    -1.6871 H       
  44 H44            7.3379    12.0040    -2.2425 H       
  45 H45            5.6759     9.8825    -3.6664 H       
  46 H46            5.3836     8.8697    -2.2322 H       
  47 H47            5.2836    10.6423    -2.1053 H       
@<TRIPOS>BOND
   1    1    2 ar
   2    1    6 ar
   3    1   28 1
   4    2    3 ar
   5    2    7 1
   6    3    4 ar
   7    3   29 1
   8    4    5 ar
   9    4   30 1
  10    5    6 ar
  11    5    8 1
  12    6   31 1
  13    8    9 1
  14    8   12 2
  15    9   10 2
  16   10   11 1
  17   10   13 1
  18   11   12 1
  19   13   14 1
  20   13   18 1
  21   13   32 1
  22   14   15 1
  23   14   33 1
  24   14   34 1
  25   15   16 1
  26   15   35 1
  27   15   36 1
  28   16   17 1
  29   16   37 1
  30   16   38 1
  31   17   18 1
  32   17   19 am
  33   18   39 1
  34   18   40 1
  35   19   20 1
  36   19   21 2
  37   20   22 ar
  38   20   26 ar
  39   22   23 ar
  40   22   41 1
  41   23   24 ar
  42   23   42 1
  43   24   25 ar
  44   24   43 1
  45   25   26 ar
  46   25   44 1
  47   26   27 1
  48   27   45 1
  49   27   46 1
  50   27   47 1

#	End of record

