#	Name: ASD01816852
#	Creating user name:	WinNT
#	Creation time:	15. 06. 2019 19:36

#	Modifying user name:	WinNT
#	Modification time:	15. 06. 2019 19:36

#	Program:	/corina/corina34_cracker 3.40 0067  02.08.2006

@<TRIPOS>MOLECULE
ASD01816852
  52   55    0    0    0
SMALL
NO_CHARGES


@<TRIPOS>ATOM
   1 C1            -0.0168     1.3893     0.0097 C.ar    
   2 C2             0.0021    -0.0041     0.0020 C.ar    
   3 C3             1.1795    -0.6881    -0.0129 C.ar    
   4 C4             2.3931     0.0172    -0.0207 C.ar    
   5 C5             2.3786     1.4366    -0.0130 C.ar    
   6 C6             1.1397     2.1078     0.0025 C.ar    
   7 C7             3.6295    -0.6558    -0.0356 C.ar    
   8 C8             4.7715     0.0916    -0.0421 C.ar    
   9 C9             4.6888     1.4921    -0.0340 C.ar    
  10 N10            3.5260     2.1140    -0.0195 N.ar    
  11 C11            5.9375     2.2913    -0.0408 C.2     
  12 N12            5.8759     3.6376    -0.0331 N.am    
  13 O13            7.0164     1.7325    -0.0533 O.2     
  14 C14            7.1098     4.4274    -0.0398 C.3     
  15 C15            6.8416     5.8023     0.5800 C.3     
  16 O16            6.4620     5.6434     1.9484 O.3     
  17 C17            3.6904    -2.1615    -0.0436 C.3     
  18 C18            3.5737    -2.6615    -1.4605 C.ar    
  19 C19            4.7047    -2.8444    -2.2313 C.ar    
  20 C20            2.3288    -2.9483    -2.0028 C.ar    
  21 C21            2.2666    -3.4052    -3.3079 C.ar    
  22 C22            3.4449    -3.5601    -4.0265 C.ar    
  23 N23            4.6135    -3.2812    -3.4730 N.ar    
  24 O24            3.3975    -4.0076    -5.3064 O.3     
  25 C25            4.6436    -4.1457    -5.9920 C.3     
  26 C26            8.1150     6.6479     0.4971 C.3     
  27 O27            8.5249     6.7569    -0.8675 O.3     
  28 C28            8.8350     5.5062    -1.4853 C.3     
  29 C29            7.5905     4.6147    -1.4821 C.3     
  30 Cl30           1.0882     3.8430     0.0117 Cl      
  31 H31           -0.9642     1.9077     0.0170 H       
  32 H32           -0.9302    -0.5492     0.0084 H       
  33 H33            1.1796    -1.7681    -0.0184 H       
  34 H34            5.7362    -0.3939    -0.0532 H       
  35 H35            5.0146     4.0837    -0.0231 H       
  36 H36            7.8766     3.9106     0.5373 H       
  37 H37            6.0383     6.2973     0.0343 H       
  38 H38            6.2766     6.4758     2.4043 H       
  39 H39            4.6397    -2.4890     0.3802 H       
  40 H40            2.8695    -2.5616     0.5515 H       
  41 H41            5.6762    -2.6269    -1.8127 H       
  42 H42            1.4291    -2.8184    -1.4196 H       
  43 H43            1.3145    -3.6384    -3.7613 H       
  44 H44            5.1420    -3.1774    -6.0386 H       
  45 H45            5.2759    -4.8545    -5.4573 H       
  46 H46            4.4635    -4.5106    -7.0032 H       
  47 H47            7.9178     7.6422     0.8980 H       
  48 H48            8.9057     6.1722     1.0773 H       
  49 H49            9.1565     5.6780    -2.5125 H       
  50 H50            9.6351     5.0155    -0.9310 H       
  51 H51            7.8366     3.6442    -1.9129 H       
  52 H52            6.8031     5.0862    -2.0701 H       
@<TRIPOS>BOND
   1    1    2 ar
   2    1    6 ar
   3    1   31 1
   4    2    3 ar
   5    2   32 1
   6    3    4 ar
   7    3   33 1
   8    4    5 ar
   9    4    7 ar
  10    5    6 ar
  11    5   10 ar
  12    6   30 1
  13    7    8 ar
  14    7   17 1
  15    8    9 ar
  16    8   34 1
  17    9   10 ar
  18    9   11 1
  19   11   12 am
  20   11   13 2
  21   12   14 1
  22   12   35 1
  23   14   15 1
  24   14   29 1
  25   14   36 1
  26   15   16 1
  27   15   26 1
  28   15   37 1
  29   16   38 1
  30   17   18 1
  31   17   39 1
  32   17   40 1
  33   18   19 ar
  34   18   20 ar
  35   19   23 ar
  36   19   41 1
  37   20   21 ar
  38   20   42 1
  39   21   22 ar
  40   21   43 1
  41   22   23 ar
  42   22   24 1
  43   24   25 1
  44   25   44 1
  45   25   45 1
  46   25   46 1
  47   26   27 1
  48   26   47 1
  49   26   48 1
  50   27   28 1
  51   28   29 1
  52   28   49 1
  53   28   50 1
  54   29   51 1
  55   29   52 1

#	End of record

