#	Name: ASD05430212
#	Creating user name:	WinNT
#	Creation time:	15. 06. 2019 21:00

#	Modifying user name:	WinNT
#	Modification time:	15. 06. 2019 21:00

#	Program:	/corina/corina34_cracker 3.40 0067  02.08.2006

@<TRIPOS>MOLECULE
ASD05430212
  68   73    0    0    0
SMALL
NO_CHARGES


@<TRIPOS>ATOM
   1 C1             0.5238     0.4761     1.8500 C.ar    
   2 C2             0.7822    -0.8878     1.9809 C.ar    
   3 C3             2.0736    -1.3722     1.8180 C.ar    
   4 C4             3.1059    -0.5071     1.5262 C.ar    
   5 C5             2.8541     0.8623     1.3928 C.ar    
   6 C6             1.5540     1.3498     1.5569 C.ar    
   7 O7             5.5749     0.0791     1.4959 O.3     
   8 C8             5.2294     1.3427     1.0745 C.2     
   9 C9             3.9551     1.7879     1.0816 C.2     
  10 C10            6.7911     0.0029     2.2518 C.3     
  11 C11            8.0422     0.5512     1.5483 C.3     
  12 N12            7.6809     1.8244     0.9258 N.pl3   
  13 C13            6.3645     2.1785     0.6122 C.2     
  14 N14           -0.2643    -1.7726     2.2783 N.pl3   
  15 C15           -1.1756    -1.6387     3.2764 C.2     
  16 C16           -0.5642    -2.9329     1.6129 C.2     
  17 C17           -1.6376    -3.4677     2.2257 C.2     
  18 N18           -1.9894    -2.6586     3.2358 N.2     
  19 C19           -2.3271    -4.7511     1.8401 C.3     
  20 C20            8.5193     2.9536     0.5304 C.3     
  21 O21            7.6684     3.6959    -0.3690 O.3     
  22 N22            6.3448     3.2509    -0.1025 N.2     
  23 C23            8.8906     3.8032     1.7475 C.3     
  24 C24            9.7670     4.9757     1.3028 C.3     
  25 C25            9.7570     2.4734    -0.1827 C.ar    
  26 C26           10.1566     3.0815    -1.3582 C.ar    
  27 C27           10.4951     1.4289     0.3421 C.ar    
  28 C28           11.6308     0.9883    -0.3105 C.ar    
  29 C29           12.0291     1.5931    -1.4906 C.ar    
  30 C30           11.2917     2.6423    -2.0128 C.ar    
  31 S31           10.2072     5.9830     2.7459 S.o2    
  32 O32            9.0232     6.5743     3.2633 O.2     
  33 O33           11.0282     5.2060     3.6069 O.2     
  34 C34           11.2243     7.2854     1.9976 C.3     
  35 C35           -0.9347     2.3541     1.8572 C.3     
  36 O36           -0.7425     0.9458     2.0051 O.3     
  37 C37            6.6951     0.1929     3.7652 C.3     
  38 C38            6.9730    -1.1948     3.1826 C.3     
  39 F39           13.1392     1.1632    -2.1295 F       
  40 H40            2.2693    -2.4293     1.9207 H       
  41 H41            4.1092    -0.8865     1.4007 H       
  42 H42            1.3550     2.4063     1.4545 H       
  43 H43            3.7436     2.8233     0.8590 H       
  44 H44            8.8368     0.7089     2.2775 H       
  45 H45            8.3748    -0.1520     0.7847 H       
  46 H46           -1.2192    -0.8251     3.9853 H       
  47 H47           -0.0406    -3.3397     0.7604 H       
  48 H48           -1.8728    -5.5834     2.3778 H       
  49 H49           -3.3845    -4.6867     2.0967 H       
  50 H50           -2.2227    -4.9115     0.7671 H       
  51 H51            7.9827     4.1849     2.2148 H       
  52 H52            9.4384     3.1914     2.4642 H       
  53 H53           10.6749     4.5940     0.8356 H       
  54 H54            9.2192     5.5875     0.5861 H       
  55 H55            9.5813     3.8998    -1.7652 H       
  56 H56           10.1843     0.9573     1.2626 H       
  57 H57           12.2077     0.1728     0.1000 H       
  58 H58           11.6012     3.1146    -2.9334 H       
  59 H59           10.6336     7.8293     1.2605 H       
  60 H60           11.5612     7.9737     2.7727 H       
  61 H61           12.0893     6.8358     1.5100 H       
  62 H62           -1.9874     2.5947     2.0053 H       
  63 H63           -0.3336     2.8825     2.5971 H       
  64 H64           -0.6296     2.6593     0.8562 H       
  65 H65            7.5195     0.7048     4.2616 H       
  66 H66            5.7068     0.3725     4.1882 H       
  67 H67            6.1676    -1.9280     3.2226 H       
  68 H68            7.9803    -1.5958     3.2959 H       
@<TRIPOS>BOND
   1    1    2 ar
   2    1    6 ar
   3    1   36 1
   4    2    3 ar
   5    2   14 1
   6    3    4 ar
   7    3   40 1
   8    4    5 ar
   9    4   41 1
  10    5    6 ar
  11    5    9 1
  12    6   42 1
  13    7    8 1
  14    7   10 1
  15    8    9 2
  16    8   13 1
  17    9   43 1
  18   10   11 1
  19   10   37 1
  20   10   38 1
  21   11   12 1
  22   11   44 1
  23   11   45 1
  24   12   13 1
  25   12   20 1
  26   13   22 2
  27   14   15 1
  28   14   16 1
  29   15   18 2
  30   15   46 1
  31   16   17 2
  32   16   47 1
  33   17   18 1
  34   17   19 1
  35   19   48 1
  36   19   49 1
  37   19   50 1
  38   20   21 1
  39   20   23 1
  40   20   25 1
  41   21   22 1
  42   23   24 1
  43   23   51 1
  44   23   52 1
  45   24   31 1
  46   24   53 1
  47   24   54 1
  48   25   26 ar
  49   25   27 ar
  50   26   30 ar
  51   26   55 1
  52   27   28 ar
  53   27   56 1
  54   28   29 ar
  55   28   57 1
  56   29   30 ar
  57   29   39 1
  58   30   58 1
  59   31   32 2
  60   31   33 2
  61   31   34 1
  62   34   59 1
  63   34   60 1
  64   34   61 1
  65   35   36 1
  66   35   62 1
  67   35   63 1
  68   35   64 1
  69   37   38 1
  70   37   65 1
  71   37   66 1
  72   38   67 1
  73   38   68 1

#	End of record

