#	Name: ASD00840761
#	Creating user name:	WinNT
#	Creation time:	15. 06. 2019 18:39

#	Modifying user name:	WinNT
#	Modification time:	15. 06. 2019 18:39

#	Program:	/corina/corina34_cracker 3.40 0067  02.08.2006

@<TRIPOS>MOLECULE
ASD00840761
  92   97    0    0    0
SMALL
NO_CHARGES


@<TRIPOS>ATOM
   1 F1             6.0660    -1.9523    -2.0296 F       
   2 N2             1.0627     1.4585    -0.7562 N.ar    
   3 C3             1.3243     0.1665    -0.8621 C.ar    
   4 C4             1.2443    -0.6652     0.2478 C.ar    
   5 C5             0.8864    -0.1241     1.4701 C.ar    
   6 C6             0.6199     1.2366     1.5393 C.ar    
   7 C7             0.7190     2.0033     0.3955 C.ar    
   8 C8             1.5427    -2.1370     0.1223 C.3     
   9 C9             1.2606    -2.8486     1.4283 C.2     
  10 C10            0.7225    -2.7540    -1.0124 C.3     
  11 C11           -0.7395    -2.4632    -0.7910 C.2     
  12 N12           -1.6637    -2.9847    -1.6219 N.am    
  13 O13           -1.0845    -1.7598     0.1349 O.2     
  14 C14           -3.0810    -2.6217    -1.4875 C.3     
  15 C15           -3.9096    -3.9048    -1.3697 C.3     
  16 C16           -3.6043    -4.8156    -2.5611 C.3     
  17 C17           -2.1217    -5.1952    -2.5484 C.3     
  18 C18           -1.2721    -3.9223    -2.6831 C.3     
  19 C19           -4.4558    -6.0831    -2.4650 C.3     
  20 C20           -5.9395    -5.7052    -2.4793 C.3     
  21 C21           -6.7860    -6.9797    -2.4444 C.3     
  22 N22           -6.4639    -7.8146    -3.6087 N.3     
  23 C23           -5.0553    -8.2292    -3.5915 C.3     
  24 C24           -4.1572    -6.9920    -3.6606 C.3     
  25 C25           -7.3549    -8.9802    -3.6832 C.3     
  26 O26            0.1885    -2.9241     1.9905 O.2     
  27 N27            2.4207    -3.3815     1.8474 N.am    
  28 C28            3.0200    -2.3600    -0.1066 C.ar    
  29 C29            3.4729    -3.1132     0.9694 C.ar    
  30 C30            3.8807    -1.9712    -1.1081 C.ar    
  31 C31            5.2176    -2.3320    -1.0492 C.ar    
  32 C32            5.6810    -3.0831     0.0190 C.ar    
  33 C33            4.8176    -3.4730     1.0236 C.ar    
  34 Cl34           7.3551    -3.5360     0.0948 Cl      
  35 C35            2.2912    -5.9449     2.8405 C.ar    
  36 C36            1.0366    -6.3461     2.4045 C.ar    
  37 C37            3.3130    -6.8687     2.9526 C.ar    
  38 C38            3.0883    -8.1932     2.6306 C.ar    
  39 C39            1.8350    -8.5994     2.1940 C.ar    
  40 C40            0.8084    -7.6750     2.0811 C.ar    
  41 O41            1.6144    -9.9026     1.8778 O.3     
  42 O42            0.0321    -5.4374     2.2949 O.3     
  43 C43           -1.2333    -5.9208     1.8398 C.3     
  44 C44            2.7176   -10.7999     2.0182 C.3     
  45 O45            1.6736    -0.3519    -2.0663 O.3     
  46 C46            2.1650    -0.1930    -4.4272 C.3     
  47 C47            1.6302     0.5303    -3.1896 C.3     
  48 S48            2.5840    -4.2551     3.2447 S.o2    
  49 O49            3.9520    -4.1630     3.6179 O.2     
  50 O50            1.5178    -3.8553     4.0948 O.2     
  51 H51            0.8157    -0.7462     2.3501 H       
  52 H52            0.3376     1.6905     2.4777 H       
  53 H53            0.5131     3.0623     0.4440 H       
  54 H54            1.0382    -2.3254    -1.9636 H       
  55 H55            0.8799    -3.8324    -1.0297 H       
  56 H56           -3.2194    -2.0140    -0.5933 H       
  57 H57           -3.3994    -2.0605    -2.3661 H       
  58 H58           -3.6538    -4.4193    -0.4435 H       
  59 H59           -4.9703    -3.6538    -1.3661 H       
  60 H60           -3.8370    -4.2914    -3.4880 H       
  61 H61           -1.8828    -5.6975    -1.6110 H       
  62 H62           -1.9099    -5.8626    -3.3837 H       
  63 H63           -1.4442    -3.4698    -3.6597 H       
  64 H64           -0.2171    -4.1742    -2.5756 H       
  65 H65           -4.2228    -6.6092    -1.5392 H       
  66 H66           -6.1675    -5.0929    -1.6067 H       
  67 H67           -6.1634    -5.1443    -3.3867 H       
  68 H68           -6.5716    -7.5331    -1.5302 H       
  69 H69           -7.8429    -6.7144    -2.4689 H       
  70 H70           -4.8491    -8.7768    -2.6719 H       
  71 H71           -4.8553    -8.8715    -4.4491 H       
  72 H72           -4.3531    -6.4514    -4.5865 H       
  73 H73           -3.1117    -7.2992    -3.6320 H       
  74 H74           -8.3878    -8.6431    -3.7699 H       
  75 H75           -7.0946    -9.5814    -4.5543 H       
  76 H76           -7.2433    -9.5811    -2.7806 H       
  77 H77            3.5146    -1.3861    -1.9388 H       
  78 H78            5.1856    -4.0584     1.8532 H       
  79 H79            4.2889    -6.5545     3.2921 H       
  80 H80            3.8886    -8.9131     2.7183 H       
  81 H81           -0.1676    -7.9892     1.7419 H       
  82 H82           -1.9439    -5.0954     1.7978 H       
  83 H83           -1.1207    -6.3541     0.8460 H       
  84 H84           -1.6006    -6.6817     2.5284 H       
  85 H85            3.0538   -10.8030     3.0551 H       
  86 H86            2.4067   -11.8053     1.7341 H       
  87 H87            3.5339   -10.4760     1.3726 H       
  88 H88            1.5000    -1.0185    -4.6813 H       
  89 H89            2.2138     0.5048    -5.2631 H       
  90 H90            3.1622    -0.5807    -4.2189 H       
  91 H91            0.6009     0.8419    -3.3673 H       
  92 H92            2.2453     1.4071    -2.9871 H       
@<TRIPOS>BOND
   1    1   31 1
   2    2    3 ar
   3    2    7 ar
   4    3    4 ar
   5    3   45 1
   6    4    5 ar
   7    4    8 1
   8    5    6 ar
   9    5   51 1
  10    6    7 ar
  11    6   52 1
  12    7   53 1
  13    8    9 1
  14    8   10 1
  15    8   28 1
  16    9   26 2
  17    9   27 am
  18   10   11 1
  19   10   54 1
  20   10   55 1
  21   11   12 am
  22   11   13 2
  23   12   14 1
  24   12   18 1
  25   14   15 1
  26   14   56 1
  27   14   57 1
  28   15   16 1
  29   15   58 1
  30   15   59 1
  31   16   17 1
  32   16   19 1
  33   16   60 1
  34   17   18 1
  35   17   61 1
  36   17   62 1
  37   18   63 1
  38   18   64 1
  39   19   20 1
  40   19   24 1
  41   19   65 1
  42   20   21 1
  43   20   66 1
  44   20   67 1
  45   21   22 1
  46   21   68 1
  47   21   69 1
  48   22   23 1
  49   22   25 1
  50   23   24 1
  51   23   70 1
  52   23   71 1
  53   24   72 1
  54   24   73 1
  55   25   74 1
  56   25   75 1
  57   25   76 1
  58   27   48 am
  59   27   29 1
  60   28   29 ar
  61   28   30 ar
  62   29   33 ar
  63   30   31 ar
  64   30   77 1
  65   31   32 ar
  66   32   33 ar
  67   32   34 1
  68   33   78 1
  69   35   36 ar
  70   35   37 ar
  71   35   48 1
  72   36   42 1
  73   36   40 ar
  74   37   38 ar
  75   37   79 1
  76   38   39 ar
  77   38   80 1
  78   39   40 ar
  79   39   41 1
  80   40   81 1
  81   41   44 1
  82   42   43 1
  83   43   82 1
  84   43   83 1
  85   43   84 1
  86   44   85 1
  87   44   86 1
  88   44   87 1
  89   45   47 1
  90   46   47 1
  91   46   88 1
  92   46   89 1
  93   46   90 1
  94   47   91 1
  95   47   92 1
  96   48   49 2
  97   48   50 2

#	End of record

