#	Name: ASD01880072
#	Creating user name:	WinNT
#	Creation time:	15. 06. 2019 19:39

#	Modifying user name:	WinNT
#	Modification time:	15. 06. 2019 19:39

#	Program:	/corina/corina34_cracker 3.40 0067  02.08.2006

@<TRIPOS>MOLECULE
ASD01880072
  46   48    0    0    0
SMALL
NO_CHARGES


@<TRIPOS>ATOM
   1 C1             0.5560     1.0262    -2.0869 C.ar    
   2 C2             0.8048    -0.3185    -2.2849 C.ar    
   3 N3             1.9282    -0.8660    -1.8635 N.ar    
   4 C4             2.8528    -0.1606    -1.2420 C.ar    
   5 C5             2.6739     1.1901    -1.0088 C.ar    
   6 C6             1.5053     1.8005    -1.4369 C.ar    
   7 C7             3.7355     1.9887    -0.2973 C.3     
   8 N8             4.6753     2.5356    -1.2790 N.am    
   9 C9             4.3892     3.7415    -1.9231 C.ar    
  10 S10            6.0768     1.7242    -1.6252 S.o2    
  11 C11            5.6355     0.6240    -2.9982 C.3     
  12 O12            6.9692     2.7384    -2.0659 O.2     
  13 O13            6.3455     0.9719    -0.4500 O.2     
  14 C14            3.5499     4.6686    -1.3214 C.ar    
  15 C15            3.2683     5.8644    -1.9640 C.ar    
  16 C16            3.8260     6.1315    -3.2066 C.ar    
  17 C17            4.6612     5.2068    -3.8046 C.ar    
  18 C18            4.9491     4.0170    -3.1649 C.ar    
  19 C19            6.7951    -0.3345    -3.2767 C.3     
  20 O20            2.4466     6.7742    -1.3779 O.3     
  21 C21            2.1121     7.8829    -2.0887 C.ar    
  22 C22            0.9999     7.8672    -2.9182 C.ar    
  23 C23            0.6617     8.9958    -3.6394 C.ar    
  24 C24            1.4305    10.1404    -3.5353 C.ar    
  25 C25            2.5393    10.1586    -2.7094 C.ar    
  26 C26            2.8788     9.0344    -1.9820 C.ar    
  27 H27           -0.3641     1.4696    -2.4379 H       
  28 H28            0.0706    -0.9284    -2.7902 H       
  29 H29            3.7601    -0.6439    -0.9110 H       
  30 H30            1.3382     2.8541    -1.2685 H       
  31 H31            3.2682     2.8055     0.2527 H       
  32 H32            4.2715     1.3425     0.3979 H       
  33 H33            4.7464     0.0515    -2.7338 H       
  34 H34            5.4332     1.2182    -3.8894 H       
  35 H35            3.1166     4.4589    -0.3546 H       
  36 H36            3.6066     7.0630    -3.7072 H       
  37 H37            5.0935     5.4171    -4.7717 H       
  38 H38            5.6024     3.2963    -3.6342 H       
  39 H39            7.6842     0.2381    -3.5412 H       
  40 H40            6.9974    -0.9287    -2.3856 H       
  41 H41            6.5300    -0.9956    -4.1018 H       
  42 H42            0.3993     6.9734    -3.0002 H       
  43 H43           -0.2037     8.9841    -4.2855 H       
  44 H44            1.1646    11.0216    -4.1003 H       
  45 H45            3.1381    11.0539    -2.6299 H       
  46 H46            3.7448     9.0493    -1.3369 H       
@<TRIPOS>BOND
   1    1    2 ar
   2    1    6 ar
   3    1   27 1
   4    2    3 ar
   5    2   28 1
   6    3    4 ar
   7    4    5 ar
   8    4   29 1
   9    5    6 ar
  10    5    7 1
  11    6   30 1
  12    7    8 1
  13    7   31 1
  14    7   32 1
  15    8    9 1
  16    8   10 am
  17    9   14 ar
  18    9   18 ar
  19   10   11 1
  20   10   12 2
  21   10   13 2
  22   11   19 1
  23   11   33 1
  24   11   34 1
  25   14   15 ar
  26   14   35 1
  27   15   16 ar
  28   15   20 1
  29   16   17 ar
  30   16   36 1
  31   17   18 ar
  32   17   37 1
  33   18   38 1
  34   19   39 1
  35   19   40 1
  36   19   41 1
  37   20   21 1
  38   21   22 ar
  39   21   26 ar
  40   22   23 ar
  41   22   42 1
  42   23   24 ar
  43   23   43 1
  44   24   25 ar
  45   24   44 1
  46   25   26 ar
  47   25   45 1
  48   26   46 1

#	End of record

