#	Name: ASD06340027
#	Creating user name:	WinNT
#	Creation time:	15. 06. 2019 21:05

#	Modifying user name:	WinNT
#	Modification time:	15. 06. 2019 21:05

#	Program:	/corina/corina34_cracker 3.40 0067  02.08.2006

@<TRIPOS>MOLECULE
ASD06340027
  24   24    0    0    0
SMALL
NO_CHARGES


@<TRIPOS>ATOM
   1 N1            -0.0159     1.3206     0.0093 N.am    
   2 C2             0.0021    -0.0041     0.0020 C.2     
   3 N3             1.2079    -0.5931    -0.0127 N.am    
   4 S4             2.3479     0.6655    -0.0168 S.3     
   5 C5             1.1811     1.9312     0.0012 C.2     
   6 C6            -1.2703     2.0773     0.0195 C.3     
   7 C7             1.4848    -2.0317    -0.0226 C.3     
   8 C8             0.8609    -2.6626    -1.2690 C.3     
   9 C9             2.9977    -2.2597    -0.0384 C.3     
  10 C10            0.8852    -2.6752     1.2293 C.3     
  11 O11           -1.0257    -0.6556     0.0087 O.2     
  12 O12            1.3957     3.1293     0.0049 O.2     
  13 H13           -1.5764     2.2594     1.0496 H       
  14 H14           -1.1242     3.0298    -0.4899 H       
  15 H15           -2.0436     1.5057    -0.4937 H       
  16 H16            1.2881    -2.2041    -2.1609 H       
  17 H17            1.0670    -3.7329    -1.2764 H       
  18 H18           -0.2169    -2.5001    -1.2578 H       
  19 H19            3.4422    -1.8103     0.8495 H       
  20 H20            3.2037    -3.3301    -0.0458 H       
  21 H21            3.4249    -1.8013    -0.9303 H       
  22 H22           -0.1926    -2.5127     1.2406 H       
  23 H23            1.0912    -3.7455     1.2219 H       
  24 H24            1.3297    -2.2257     2.1173 H       
@<TRIPOS>BOND
   1    1    2 am
   2    1    5 am
   3    1    6 1
   4    2    3 am
   5    2   11 2
   6    3    4 1
   7    3    7 1
   8    4    5 1
   9    5   12 2
  10    6   13 1
  11    6   14 1
  12    6   15 1
  13    7    8 1
  14    7    9 1
  15    7   10 1
  16    8   16 1
  17    8   17 1
  18    8   18 1
  19    9   19 1
  20    9   20 1
  21    9   21 1
  22   10   22 1
  23   10   23 1
  24   10   24 1

#	End of record

