#	Name: ASD01916559
#	Creating user name:	WinNT
#	Creation time:	15. 06. 2019 20:07

#	Modifying user name:	WinNT
#	Modification time:	15. 06. 2019 20:07

#	Program:	/corina/corina34_cracker 3.40 0067  02.08.2006

@<TRIPOS>MOLECULE
ASD01916559
  44   47    0    0    0
SMALL
NO_CHARGES


@<TRIPOS>ATOM
   1 C1            -0.0162     1.6117    -0.0693 C.ar    
   2 C2            -0.0723     0.2013    -0.1561 C.ar    
   3 C3            -1.3023    -0.4516    -0.2398 C.ar    
   4 C4            -2.4580     0.2729    -0.2269 C.ar    
   5 C5            -2.4210     1.6721    -0.1274 C.ar    
   6 C6            -1.2026     2.3425    -0.0496 C.ar    
   7 N7             1.1944     2.2123    -0.0176 N.2     
   8 C8             2.3191     1.5422    -0.0233 C.2     
   9 N9             2.3485     0.1855    -0.0074 N.am    
  10 C10            1.1990    -0.5294    -0.1419 C.2     
  11 C11           -3.6445     2.4159    -0.1056 C.1     
  12 O12            1.2251    -1.7420    -0.2472 O.2     
  13 C13           -4.6475     3.0258    -0.0877 C.1     
  14 C14           -5.8710     3.7696    -0.0660 C.ar    
  15 C15            3.5847     2.3656    -0.0977 C.3     
  16 C16            4.7686     1.5751     0.4559 C.3     
  17 C17            4.8017     0.2135    -0.2504 C.3     
  18 C18            3.5787    -0.5832     0.1968 C.3     
  19 N19           -5.8358     5.0953     0.0284 N.ar    
  20 C20           -6.9387     5.8146     0.0510 C.ar    
  21 C21           -8.1818     5.2126    -0.0230 C.ar    
  22 C22           -8.2657     3.8303    -0.1226 C.ar    
  23 C23           -7.0931     3.0973    -0.1498 C.ar    
  24 C24            6.0696     2.3319     0.1813 C.3     
  25 Cl25           7.4389     1.4889     0.9967 Cl      
  26 F26            6.3025     2.3739    -1.1976 F       
  27 F27            5.9638     3.6362     0.6762 F       
  28 C28            3.8618     2.7369    -1.5559 C.3     
  29 H29           -1.3394    -1.5284    -0.3150 H       
  30 H30           -3.4090    -0.2344    -0.2943 H       
  31 H31           -1.1775     3.4196     0.0254 H       
  32 H32            3.4561     3.2777     0.4852 H       
  33 H33            4.6453     1.4304     1.5292 H       
  34 H34            4.7719     0.3583    -1.3304 H       
  35 H35            5.7104    -0.3219     0.0247 H       
  36 H36            3.6772    -0.8267     1.2547 H       
  37 H37            3.5232    -1.5072    -0.3787 H       
  38 H38           -6.8716     6.8897     0.1289 H       
  39 H39           -9.0796     5.8126    -0.0032 H       
  40 H40           -9.2254     3.3385    -0.1817 H       
  41 H41           -7.1218     2.0204    -0.2266 H       
  42 H42            2.9723     3.1935    -1.9899 H       
  43 H43            4.6909     3.4430    -1.5998 H       
  44 H44            4.1196     1.8385    -2.1168 H       
@<TRIPOS>BOND
   1    1    2 ar
   2    1    7 1
   3    1    6 ar
   4    2    3 ar
   5    2   10 1
   6    3    4 ar
   7    3   29 1
   8    4    5 ar
   9    4   30 1
  10    5    6 ar
  11    5   11 1
  12    6   31 1
  13    7    8 2
  14    8    9 1
  15    8   15 1
  16    9   10 am
  17    9   18 1
  18   10   12 2
  19   11   13 3
  20   13   14 1
  21   14   19 ar
  22   14   23 ar
  23   15   16 1
  24   15   28 1
  25   15   32 1
  26   16   17 1
  27   16   24 1
  28   16   33 1
  29   17   18 1
  30   17   34 1
  31   17   35 1
  32   18   36 1
  33   18   37 1
  34   19   20 ar
  35   20   21 ar
  36   20   38 1
  37   21   22 ar
  38   21   39 1
  39   22   23 ar
  40   22   40 1
  41   23   41 1
  42   24   25 1
  43   24   26 1
  44   24   27 1
  45   28   42 1
  46   28   43 1
  47   28   44 1

#	End of record

