#	Name: ASD02320017
#	Creating user name:	WinNT
#	Creation time:	15. 06. 2019 20:20

#	Modifying user name:	WinNT
#	Modification time:	15. 06. 2019 20:20

#	Program:	/corina/corina34_cracker 3.40 0067  02.08.2006

@<TRIPOS>MOLECULE
ASD02320017
  37   39    0    0    0
SMALL
NO_CHARGES


@<TRIPOS>ATOM
   1 C1            -0.0168     1.3870     0.0097 C.ar    
   2 C2             0.0021    -0.0041     0.0020 C.ar    
   3 C3             1.2069    -0.6826    -0.0127 C.ar    
   4 C4             2.4000     0.0367    -0.0203 C.ar    
   5 C5             2.3795     1.4404    -0.0130 C.ar    
   6 C6             1.1598     2.1053     0.0023 C.ar    
   7 C7             3.7084    -0.6482    -0.0355 C.2     
   8 C8             4.8658     0.1621    -0.0419 C.2     
   9 C9             4.7362     1.5177    -0.0339 C.2     
  10 O10            3.5414     2.1281    -0.0205 O.3     
  11 O11            3.7867    -1.8657    -0.0420 O.2     
  12 C12            5.9559     2.3467    -0.0407 C.ar    
  13 C13            5.8559     3.7410    -0.0328 C.ar    
  14 C14            6.9975     4.5112    -0.0387 C.ar    
  15 C15            8.2477     3.9043    -0.0526 C.ar    
  16 C16            8.3518     2.5184    -0.0609 C.ar    
  17 C17            7.2155     1.7404    -0.0493 C.ar    
  18 O18            9.3705     4.6673    -0.0584 O.3     
  19 S19            9.8944     5.0083     1.3293 S.o2    
  20 O20           10.9326     5.9606     1.1435 O.2     
  21 O21            8.7533     5.2509     2.1407 O.2     
  22 O22           10.5558     3.7538     1.8819 O.3     
  23 Na23          12.3324     3.3547     1.0790 Du      
  24 O24           -1.1670    -0.6981     0.0095 O.3     
  25 S25           -1.7126    -1.0067    -1.3774 S.o2    
  26 O26           -3.0134    -1.5456    -1.1861 O.2     
  27 O27           -1.4566     0.1419    -2.1740 O.2     
  28 O28           -0.8632    -2.1292    -1.9563 O.3     
  29 Na29          -1.2473    -3.9194    -1.1766 Du      
  30 H30           -0.9622     1.9092     0.0170 H       
  31 H31            1.2229    -1.7625    -0.0180 H       
  32 H32            1.1334     3.1849     0.0076 H       
  33 H33            5.8464    -0.2904    -0.0527 H       
  34 H34            4.8848     4.2134    -0.0224 H       
  35 H35            6.9212     5.5885    -0.0330 H       
  36 H36            9.3253     2.0508    -0.0724 H       
  37 H37            7.2972     0.6635    -0.0555 H       
@<TRIPOS>BOND
   1    1    2 ar
   2    1    6 ar
   3    1   30 1
   4    2    3 ar
   5    2   24 1
   6    3    4 ar
   7    3   31 1
   8    4    5 ar
   9    4    7 1
  10    5    6 ar
  11    5   10 1
  12    6   32 1
  13    7    8 1
  14    7   11 2
  15    8    9 2
  16    8   33 1
  17    9   10 1
  18    9   12 1
  19   12   13 ar
  20   12   17 ar
  21   13   14 ar
  22   13   34 1
  23   14   15 ar
  24   14   35 1
  25   15   16 ar
  26   15   18 1
  27   16   17 ar
  28   16   36 1
  29   17   37 1
  30   18   19 1
  31   19   20 2
  32   19   21 2
  33   19   22 1
  34   22   23 1
  35   24   25 1
  36   25   26 2
  37   25   27 2
  38   25   28 1
  39   28   29 1

#	End of record

