#	Name: ASD01900981
#	Creating user name:	WinNT
#	Creation time:	15. 06. 2019 19:52

#	Modifying user name:	WinNT
#	Modification time:	15. 06. 2019 19:52

#	Program:	/corina/corina34_cracker 3.40 0067  02.08.2006

@<TRIPOS>MOLECULE
ASD01900981
  63   66    0    0    0
SMALL
NO_CHARGES


@<TRIPOS>ATOM
   1 C1             0.0168     1.5126    -1.1751 C.ar    
   2 C2            -0.0508     0.1348    -1.1614 C.ar    
   3 C3             0.9596    -0.6131    -0.5774 C.ar    
   4 C4             2.0466     0.0093     0.0057 C.ar    
   5 C5             2.1283     1.3914     0.0034 C.ar    
   6 C6             1.1107     2.1529    -0.5981 C.ar    
   7 N7             3.1939     2.0631     0.5920 N.pl3   
   8 C8             3.5815     3.3762     0.0624 C.3     
   9 N9             2.3911     4.1874    -0.1973 N.am    
  10 C10            1.2328     3.6212    -0.5904 C.2     
  11 C11            2.4568     5.5767    -0.0344 C.ar    
  12 C12            2.9288     6.3757    -1.0674 C.ar    
  13 C13            2.9933     7.7456    -0.9060 C.ar    
  14 C14            2.5868     8.3237     0.2877 C.ar    
  15 C15            2.1151     7.5261     1.3202 C.ar    
  16 C16            2.0446     6.1566     1.1582 C.ar    
  17 O17            0.2964     4.3163    -0.9354 O.2     
  18 O18            2.6510     9.6726     0.4461 O.3     
  19 C19            4.4694     4.0899     1.0847 C.3     
  20 C20            4.3615     3.1835    -1.2402 C.3     
  21 C21            5.6068     2.3373    -0.9683 C.3     
  22 C22            6.4940     3.0493     0.0546 C.3     
  23 C23            5.7152     3.2445     1.3569 C.3     
  24 N24            7.6861     2.2386     0.3153 N.am    
  25 C25            8.8177     2.8256     0.7528 C.2     
  26 O26            8.8493     4.0271     0.9309 O.2     
  27 C27           10.7816     3.4846     2.7826 C.3     
  28 C28           11.0962     2.7796     1.4616 C.3     
  29 O29            9.9133     2.0805     0.9924 O.3     
  30 C30            2.2162    10.1999     1.7010 C.3     
  31 C31           11.5233     3.8155     0.4198 C.3     
  32 C32           12.2303     1.7754     1.6770 C.3     
  33 H33           -0.7713     2.0908    -1.6344 H       
  34 H34           -0.8974    -0.3647    -1.6086 H       
  35 H35            0.8964    -1.6913    -0.5778 H       
  36 H36            2.8288    -0.5796     0.4615 H       
  37 H37            3.6724     1.6713     1.3393 H       
  38 H38            3.2456     5.9258    -1.9967 H       
  39 H39            3.3607     8.3671    -1.7092 H       
  40 H40            1.7988     7.9768     2.2492 H       
  41 H41            1.6733     5.5362     1.9604 H       
  42 H42            4.7685     5.0613     0.6908 H       
  43 H43            3.9151     4.2293     2.0128 H       
  44 H44            3.7302     2.6769    -1.9703 H       
  45 H45            4.6612     4.1557    -1.6315 H       
  46 H46            5.3071     1.3657    -0.5754 H       
  47 H47            6.1615     2.1985    -1.8962 H       
  48 H48            6.7941     4.0207    -0.3384 H       
  49 H49            6.3470     3.7527     2.0854 H       
  50 H50            5.4161     2.2731     1.7504 H       
  51 H51            7.6609     1.2795     0.1731 H       
  52 H52           10.4773     2.7466     3.5248 H       
  53 H53           11.6696     4.0094     3.1348 H       
  54 H54            9.9736     4.2000     2.6291 H       
  55 H55            1.1714     9.9354     1.8639 H       
  56 H56            2.8260     9.7817     2.5018 H       
  57 H57            2.3195    11.2850     1.6946 H       
  58 H58           12.4113     4.3403     0.7721 H       
  59 H59           11.7475     3.3132    -0.5213 H       
  60 H60           10.7154     4.5309     0.2663 H       
  61 H61           11.9260     1.0374     2.4193 H       
  62 H62           12.4544     1.2731     0.7360 H       
  63 H63           13.1183     2.3002     2.0293 H       
@<TRIPOS>BOND
   1    1    2 ar
   2    1    6 ar
   3    1   33 1
   4    2    3 ar
   5    2   34 1
   6    3    4 ar
   7    3   35 1
   8    4    5 ar
   9    4   36 1
  10    5    7 1
  11    5    6 ar
  12    6   10 1
  13    7    8 1
  14    7   37 1
  15    8    9 1
  16    8   20 1
  17    8   19 1
  18    9   10 am
  19    9   11 1
  20   10   17 2
  21   11   12 ar
  22   11   16 ar
  23   12   13 ar
  24   12   38 1
  25   13   14 ar
  26   13   39 1
  27   14   15 ar
  28   14   18 1
  29   15   16 ar
  30   15   40 1
  31   16   41 1
  32   18   30 1
  33   19   23 1
  34   19   42 1
  35   19   43 1
  36   20   21 1
  37   20   44 1
  38   20   45 1
  39   21   22 1
  40   21   46 1
  41   21   47 1
  42   22   23 1
  43   22   24 1
  44   22   48 1
  45   23   49 1
  46   23   50 1
  47   24   25 am
  48   24   51 1
  49   25   26 2
  50   25   29 1
  51   27   28 1
  52   27   52 1
  53   27   53 1
  54   27   54 1
  55   28   29 1
  56   28   31 1
  57   28   32 1
  58   30   55 1
  59   30   56 1
  60   30   57 1
  61   31   58 1
  62   31   59 1
  63   31   60 1
  64   32   61 1
  65   32   62 1
  66   32   63 1

#	End of record

