#	Name: ASD01883697
#	Creating user name:	WinNT
#	Creation time:	15. 06. 2019 19:46

#	Modifying user name:	WinNT
#	Modification time:	15. 06. 2019 19:46

#	Program:	/corina/corina34_cracker 3.40 0067  02.08.2006

@<TRIPOS>MOLECULE
ASD01883697
  47   50    0    0    0
SMALL
NO_CHARGES


@<TRIPOS>ATOM
   1 C1            -0.5843     0.5821    -0.6063 C.2     
   2 C2            -0.3533    -0.7581    -0.2643 C.2     
   3 C3            -1.4550    -1.5892     0.0275 C.2     
   4 C4            -2.7136    -1.1138    -0.0191 C.2     
   5 N5            -2.9836     0.1830    -0.3471 N.pl3   
   6 C6            -1.9688     1.0584    -0.6381 C.2     
   7 C7            -4.1563     0.8839    -0.4591 C.2     
   8 C8            -3.8340     2.1452    -0.8154 C.2     
   9 N9            -2.5038     2.2330    -0.9184 N.2     
  10 C10           -5.5452     0.3466    -0.2282 C.3     
  11 C11           -6.1512    -0.0909    -1.5633 C.3     
  12 C12            1.0243    -1.2920    -0.2107 C.ar    
  13 C13            1.5618    -1.7213     1.0044 C.ar    
  14 C14            2.8471    -2.2191     1.0500 C.ar    
  15 C15            3.6066    -2.2936    -0.1119 C.ar    
  16 C16            3.0746    -1.8674    -1.3221 C.ar    
  17 C17            1.7892    -1.3737    -1.3764 C.ar    
  18 F18           -5.3537    -1.0893    -2.1326 F       
  19 F19           -7.4406    -0.5896    -1.3489 F       
  20 F20           -6.2136     1.0064    -2.4289 F       
  21 O21            4.8723    -2.7841    -0.0635 O.3     
  22 C22            5.6392    -2.7205    -1.2677 C.3     
  23 C23            7.1319    -2.7079    -0.9245 C.3     
  24 C24            7.9458    -2.7193    -2.2211 C.3     
  25 O25            7.5932    -3.8690    -2.9932 O.3     
  26 C26            6.2192    -3.9107    -3.3835 C.3     
  27 C27            5.3359    -3.9472    -2.1336 C.3     
  28 Cl28           3.5173    -2.7528     2.5598 Cl      
  29 C29            0.5037     1.4620    -0.9102 C.1     
  30 N30            1.3669     2.1601    -1.1513 N.1     
  31 H31           -1.2862    -2.6227     0.2918 H       
  32 H32           -3.5337    -1.7783     0.2096 H       
  33 H33           -4.5337     2.9502    -0.9855 H       
  34 H34           -5.4966    -0.5083     0.4462 H       
  35 H35           -6.1666     1.1245     0.2154 H       
  36 H36            0.9721    -1.6632     1.9073 H       
  37 H37            3.6679    -1.9265    -2.2226 H       
  38 H38            1.3766    -1.0426    -2.3179 H       
  39 H39            5.3833    -1.8136    -1.8155 H       
  40 H40            7.3671    -1.8090    -0.3547 H       
  41 H41            7.3771    -3.5899    -0.3328 H       
  42 H42            7.7304    -1.8171    -2.7935 H       
  43 H43            9.0089    -2.7536    -1.9827 H       
  44 H44            5.9811    -3.0240    -3.9711 H       
  45 H45            6.0384    -4.8032    -3.9825 H       
  46 H46            5.5448    -4.8541    -1.5663 H       
  47 H47            4.2867    -3.9344    -2.4285 H       
@<TRIPOS>BOND
   1    1    2 2
   2    1   29 1
   3    1    6 1
   4    2    3 1
   5    2   12 1
   6    3    4 2
   7    3   31 1
   8    4    5 1
   9    4   32 1
  10    5    6 1
  11    5    7 1
  12    6    9 2
  13    7    8 2
  14    7   10 1
  15    8    9 1
  16    8   33 1
  17   10   11 1
  18   10   34 1
  19   10   35 1
  20   11   18 1
  21   11   19 1
  22   11   20 1
  23   12   13 ar
  24   12   17 ar
  25   13   14 ar
  26   13   36 1
  27   14   15 ar
  28   14   28 1
  29   15   16 ar
  30   15   21 1
  31   16   17 ar
  32   16   37 1
  33   17   38 1
  34   21   22 1
  35   22   23 1
  36   22   27 1
  37   22   39 1
  38   23   24 1
  39   23   40 1
  40   23   41 1
  41   24   25 1
  42   24   42 1
  43   24   43 1
  44   25   26 1
  45   26   27 1
  46   26   44 1
  47   26   45 1
  48   27   46 1
  49   27   47 1
  50   29   30 3

#	End of record

