#	Name: ASD01916859
#	Creating user name:	WinNT
#	Creation time:	15. 06. 2019 20:08

#	Modifying user name:	WinNT
#	Modification time:	15. 06. 2019 20:08

#	Program:	/corina/corina34_cracker 3.40 0067  02.08.2006

@<TRIPOS>MOLECULE
ASD01916859
  59   63    0    0    0
SMALL
NO_CHARGES


@<TRIPOS>ATOM
   1 C1            -0.0665     1.3729     0.1080 C.2     
   2 N2             0.0406     0.1024    -0.2168 N.2     
   3 N3            -1.2591    -0.4294    -0.2254 N.pl3   
   4 C4            -2.0927     0.5930     0.1068 C.2     
   5 N5            -1.3551     1.6664     0.3088 N.2     
   6 C6             1.0636     2.3264     0.2371 C.ar    
   7 C7             2.3693     1.8983     0.0068 C.ar    
   8 C8             0.8220     3.6541     0.5833 C.ar    
   9 C9             1.8765     4.5367     0.7015 C.ar    
  10 C10            3.1714     4.1051     0.4769 C.ar    
  11 C11           -1.6411    -1.8103    -0.5312 C.3     
  12 C12           -1.6420    -2.6239     0.7373 C.2     
  13 N13           -1.9650    -3.9318     0.6988 N.am    
  14 O14           -1.3521    -2.1017     1.7929 O.2     
  15 C15           -1.9722    -4.7441     1.9250 C.3     
  16 C16           -3.3143    -5.4782     2.0147 C.3     
  17 N17           -3.5430    -6.2274     0.7719 N.3     
  18 C18           -3.6480    -5.3252    -0.3826 C.3     
  19 C19           -2.3256    -4.5833    -0.5696 C.3     
  20 C20           -4.6646    -7.0315     0.8768 C.ar    
  21 N21           -5.0219    -7.7810    -0.1557 N.ar    
  22 C22           -6.0884    -8.5605    -0.0884 C.ar    
  23 C23           -6.8342    -8.5867     1.0795 C.ar    
  24 C24           -6.4324    -7.7901     2.1403 C.ar    
  25 N25           -5.3526    -7.0374     2.0091 N.ar    
  26 C26           -3.5589     0.5130     0.2258 C.2     
  27 C27            3.4164     2.7893     0.1278 C.ar    
  28 C28           -4.2241     1.6262     0.4357 C.2     
  29 C29           -5.7160     1.6920     0.5862 C.3     
  30 C30           -6.3567     0.4109     0.0483 C.3     
  31 C31           -5.6284    -0.7918     0.6608 C.3     
  32 C32           -4.2062    -0.8348     0.0942 C.3     
  33 H33            2.5618     0.8710    -0.2654 H       
  34 H34           -0.1887     3.9922     0.7585 H       
  35 H35            1.6904     5.5662     0.9695 H       
  36 H36            3.9936     4.7990     0.5705 H       
  37 H37           -2.6382    -1.8224    -0.9713 H       
  38 H38           -0.9275    -2.2371    -1.2360 H       
  39 H39           -1.1596    -5.4697     1.8883 H       
  40 H40           -1.8501    -4.0970     2.7935 H       
  41 H41           -3.2953    -6.1690     2.8576 H       
  42 H42           -4.1165    -4.7538     2.1555 H       
  43 H43           -3.8711    -5.9050    -1.2782 H       
  44 H44           -4.4456    -4.6029    -0.2083 H       
  45 H45           -2.4349    -3.8314    -1.3511 H       
  46 H46           -1.5443    -5.2915    -0.8456 H       
  47 H47           -6.3748    -9.1690    -0.9335 H       
  48 H48           -7.7097    -9.2138     1.1612 H       
  49 H49           -6.9918    -7.7871     3.0641 H       
  50 H50            4.4294     2.4574    -0.0460 H       
  51 H51           -3.6649     2.5476     0.5043 H       
  52 H52           -5.9681     1.8070     1.6404 H       
  53 H53           -6.0979     2.5481     0.0300 H       
  54 H54           -7.4098     0.3826     0.3281 H       
  55 H55           -6.2624     0.3821    -1.0373 H       
  56 H56           -5.5911    -0.6842     1.7448 H       
  57 H57           -6.1538    -1.7103     0.3990 H       
  58 H58           -4.2443    -1.1224    -0.9565 H       
  59 H59           -3.6192    -1.5685     0.6466 H       
@<TRIPOS>BOND
   1    1    2 2
   2    1    6 1
   3    1    5 1
   4    2    3 1
   5    3    4 1
   6    3   11 1
   7    4    5 2
   8    4   26 1
   9    6    7 ar
  10    6    8 ar
  11    7   27 ar
  12    7   33 1
  13    8    9 ar
  14    8   34 1
  15    9   10 ar
  16    9   35 1
  17   10   27 ar
  18   10   36 1
  19   11   12 1
  20   11   37 1
  21   11   38 1
  22   12   13 am
  23   12   14 2
  24   13   15 1
  25   13   19 1
  26   15   16 1
  27   15   39 1
  28   15   40 1
  29   16   17 1
  30   16   41 1
  31   16   42 1
  32   17   18 1
  33   17   20 1
  34   18   19 1
  35   18   43 1
  36   18   44 1
  37   19   45 1
  38   19   46 1
  39   20   21 ar
  40   20   25 ar
  41   21   22 ar
  42   22   23 ar
  43   22   47 1
  44   23   24 ar
  45   23   48 1
  46   24   25 ar
  47   24   49 1
  48   26   28 2
  49   26   32 1
  50   27   50 1
  51   28   29 1
  52   28   51 1
  53   29   30 1
  54   29   52 1
  55   29   53 1
  56   30   31 1
  57   30   54 1
  58   30   55 1
  59   31   32 1
  60   31   56 1
  61   31   57 1
  62   32   58 1
  63   32   59 1

#	End of record

