#	Name: ASD01883110
#	Creating user name:	WinNT
#	Creation time:	15. 06. 2019 19:45

#	Modifying user name:	WinNT
#	Modification time:	15. 06. 2019 19:45

#	Program:	/corina/corina34_cracker 3.40 0067  02.08.2006

@<TRIPOS>MOLECULE
ASD01883110
  50   53    0    0    0
SMALL
NO_CHARGES


@<TRIPOS>ATOM
   1 C1            -0.1965     1.1259     0.0643 C.2     
   2 C2             0.1017    -0.3160    -0.0177 C.ar    
   3 C3             1.4451    -0.7238    -0.0804 C.ar    
   4 N4             2.4577     0.2131    -0.0653 N.pl3   
   5 C5             2.2249     1.5321     0.0084 C.2     
   6 C6             0.9482     2.0503     0.0750 C.2     
   7 C7             3.7838    -0.2314    -0.1293 C.ar    
   8 C8             4.5520     0.0322    -1.2559 C.ar    
   9 C9             5.8599    -0.4067    -1.3168 C.ar    
  10 C10            6.4055    -1.1097    -0.2556 C.ar    
  11 C11            5.6412    -1.3736     0.8688 C.ar    
  12 C12            4.3347    -0.9315     0.9361 C.ar    
  13 C13           -0.9208    -1.2643    -0.0329 C.ar    
  14 C14           -0.6061    -2.6033    -0.1098 C.ar    
  15 C15            0.7195    -3.0082    -0.1714 C.ar    
  16 C16            1.7397    -2.0822    -0.1581 C.ar    
  17 O17           -1.3433     1.5350     0.1159 O.2     
  18 C18            0.7345     3.5039     0.1545 C.2     
  19 O19            1.6851     4.2524     0.2804 O.2     
  20 N20           -0.5144     4.0061     0.0878 N.am    
  21 F21            7.6850    -1.5390    -0.3175 F       
  22 C22           -1.7065    -3.6328    -0.1267 C.3     
  23 C23           -2.1242    -3.9091    -1.5724 C.3     
  24 C24           -3.2246    -4.9386    -1.5892 C.ar    
  25 C25           -5.5321    -5.5287    -1.5461 C.ar    
  26 C26           -5.1536    -6.8558    -1.6245 C.ar    
  27 N27           -3.8796    -7.1918    -1.6761 N.ar    
  28 C28           -2.9220    -6.2850    -1.6604 C.ar    
  29 C29           -4.5535    -4.5470    -1.5278 C.ar    
  30 C30           -6.2089    -7.9314    -1.6451 C.3     
  31 F31           -6.5769    -8.1983    -2.9682 F       
  32 F32           -5.7001    -9.0952    -1.0588 F       
  33 F33           -7.3294    -7.4991    -0.9276 F       
  34 H34            3.0649     2.2108     0.0167 H       
  35 H35            4.1267     0.5798    -2.0840 H       
  36 H36            6.4576    -0.2019    -2.1927 H       
  37 H37            6.0685    -1.9223     1.6951 H       
  38 H38            3.7404    -1.1337     1.8150 H       
  39 H39           -1.9531    -0.9509     0.0156 H       
  40 H40            0.9543    -4.0607    -0.2311 H       
  41 H41            2.7676    -2.4101    -0.2068 H       
  42 H42           -1.2653     3.4173    -0.0864 H       
  43 H43           -0.6624     4.9564     0.2140 H       
  44 H44           -1.3482    -4.5551     0.3306 H       
  45 H45           -2.5630    -3.2582     0.4337 H       
  46 H46           -2.4825    -2.9868    -2.0297 H       
  47 H47           -1.2676    -4.2837    -2.1328 H       
  48 H48           -6.5773    -5.2597    -1.5042 H       
  49 H49           -1.8894    -6.5984    -1.7041 H       
  50 H50           -4.8196    -3.5021    -1.4667 H       
@<TRIPOS>BOND
   1    1    2 1
   2    1    6 1
   3    1   17 2
   4    2    3 ar
   5    2   13 ar
   6    3    4 1
   7    3   16 ar
   8    4    5 1
   9    4    7 1
  10    5    6 2
  11    5   34 1
  12    6   18 1
  13    7    8 ar
  14    7   12 ar
  15    8    9 ar
  16    8   35 1
  17    9   10 ar
  18    9   36 1
  19   10   11 ar
  20   10   21 1
  21   11   12 ar
  22   11   37 1
  23   12   38 1
  24   13   14 ar
  25   13   39 1
  26   14   15 ar
  27   14   22 1
  28   15   16 ar
  29   15   40 1
  30   16   41 1
  31   18   19 2
  32   18   20 am
  33   20   42 1
  34   20   43 1
  35   22   23 1
  36   22   44 1
  37   22   45 1
  38   23   24 1
  39   23   46 1
  40   23   47 1
  41   24   29 ar
  42   24   28 ar
  43   25   26 ar
  44   25   29 ar
  45   25   48 1
  46   26   27 ar
  47   26   30 1
  48   27   28 ar
  49   28   49 1
  50   29   50 1
  51   30   31 1
  52   30   32 1
  53   30   33 1

#	End of record

