#	Name: ASD03430969
#	Creating user name:	WinNT
#	Creation time:	15. 06. 2019 20:41

#	Modifying user name:	WinNT
#	Modification time:	15. 06. 2019 20:41

#	Program:	/corina/corina34_cracker 3.40 0067  02.08.2006

@<TRIPOS>MOLECULE
ASD03430969
  53   59    0    0    0
SMALL
NO_CHARGES


@<TRIPOS>ATOM
   1 O1            -0.0171     1.4092     0.0098 O.3     
   2 N2             0.0021    -0.0041     0.0020 N.2     
   3 C3             1.2293    -0.4259    -0.0162 C.2     
   4 C4             2.0981     0.7532    -0.0209 C.ar    
   5 C5             3.4837     0.9341    -0.0420 C.ar    
   6 C6             4.0059     2.1917    -0.0395 C.ar    
   7 C7             3.1749     3.3164    -0.0061 C.ar    
   8 C8             1.7969     3.1470     0.0089 C.ar    
   9 C9             1.2496     1.8732     0.0002 C.ar    
  10 O10            3.9064     4.4662     0.0204 O.3     
  11 C11            5.4200     2.7073    -0.0798 C.3     
  12 C12            5.2445     4.1901    -0.4349 C.3     
  13 N13            7.2308     1.7957     0.9758 N.am    
  14 C14            6.1285     2.5279     1.2320 C.2     
  15 C15            6.2627     1.9855    -1.0889 C.ar    
  16 C16            6.1563     1.7819    -2.4467 C.ar    
  17 C17            7.1219     1.0513    -3.1159 C.ar    
  18 C18            8.1943     0.5261    -2.4181 C.ar    
  19 C19            8.3054     0.7268    -1.0580 C.ar    
  20 C20            7.3381     1.4613    -0.3763 C.ar    
  21 O21            5.7779     2.9579     2.3106 O.2     
  22 C22            1.6780    -1.8645    -0.0296 C.3     
  23 C23            8.2032     1.3970     1.9965 C.3     
  24 C24            7.8003     0.0683     2.5824 C.ar    
  25 C25            8.2633    -1.1044     2.0127 C.ar    
  26 C26            7.8982    -2.3241     2.5442 C.ar    
  27 C27            7.0599    -2.3733     3.6589 C.ar    
  28 C28            6.5964    -1.1866     4.2287 C.ar    
  29 C29            6.9736     0.0267     3.6909 C.ar    
  30 O30            7.0280    -4.8960     3.7971 O.3     
  31 N31            6.5429    -5.7712     4.4755 N.2     
  32 C32            5.8059    -5.2902     5.4360 C.2     
  33 C33            5.8549    -3.8861     5.3166 C.2     
  34 C34            6.6642    -3.6768     4.2334 C.2     
  35 H35            4.1401     0.0767    -0.0600 H       
  36 H36            1.1489     4.0108     0.0273 H       
  37 H37            5.3260     4.3423    -1.5112 H       
  38 H38            5.9693     4.8042     0.0996 H       
  39 H39            5.3179     2.1927    -2.9897 H       
  40 H40            7.0383     0.8912    -4.1807 H       
  41 H41            8.9481    -0.0441    -2.9406 H       
  42 H42            9.1456     0.3133    -0.5199 H       
  43 H43            1.7731    -2.2058    -1.0604 H       
  44 H44            2.6422    -1.9490     0.4717 H       
  45 H45            0.9431    -2.4791     0.4903 H       
  46 H46            9.1907     1.3098     1.5432 H       
  47 H47            8.2307     2.1486     2.7854 H       
  48 H48            8.9116    -1.0650     1.1499 H       
  49 H49            8.2600    -3.2389     2.0983 H       
  50 H50            5.9472    -1.2178     5.0912 H       
  51 H51            6.6194     0.9458     4.1338 H       
  52 H52            5.2629    -5.8564     6.1783 H       
  53 H53            5.3670    -3.1478     5.9357 H       
@<TRIPOS>BOND
   1    1    2 1
   2    1    9 1
   3    2    3 2
   4    3    4 1
   5    3   22 1
   6    4    5 ar
   7    4    9 ar
   8    5    6 ar
   9    5   35 1
  10    6    7 ar
  11    6   11 1
  12    7    8 ar
  13    7   10 1
  14    8    9 ar
  15    8   36 1
  16   10   12 1
  17   11   12 1
  18   11   14 1
  19   11   15 1
  20   12   37 1
  21   12   38 1
  22   13   14 am
  23   13   20 1
  24   13   23 1
  25   14   21 2
  26   15   16 ar
  27   15   20 ar
  28   16   17 ar
  29   16   39 1
  30   17   18 ar
  31   17   40 1
  32   18   19 ar
  33   18   41 1
  34   19   20 ar
  35   19   42 1
  36   22   43 1
  37   22   44 1
  38   22   45 1
  39   23   24 1
  40   23   46 1
  41   23   47 1
  42   24   25 ar
  43   24   29 ar
  44   25   26 ar
  45   25   48 1
  46   26   27 ar
  47   26   49 1
  48   27   28 ar
  49   27   34 1
  50   28   29 ar
  51   28   50 1
  52   29   51 1
  53   30   31 1
  54   30   34 1
  55   31   32 2
  56   32   33 1
  57   32   52 1
  58   33   34 2
  59   33   53 1

#	End of record

