#	Name: ASD01915271
#	Creating user name:	WinNT
#	Creation time:	15. 06. 2019 20:05

#	Modifying user name:	WinNT
#	Modification time:	15. 06. 2019 20:05

#	Program:	/corina/corina34_cracker 3.40 0067  02.08.2006

@<TRIPOS>MOLECULE
ASD01915271
  48   50    0    0    0
SMALL
NO_CHARGES


@<TRIPOS>ATOM
   1 C1             0.0918     1.3811     0.1607 C.ar    
   2 C2             0.1064    -0.0053     0.1467 C.ar    
   3 C3            -1.0921    -0.6919     0.1925 C.ar    
   4 N4            -2.2391    -0.0437     0.2486 N.ar    
   5 C5            -2.2910     1.2739     0.2636 C.ar    
   6 C6            -1.1331     2.0274     0.2259 C.ar    
   7 C7             1.3770     2.1666     0.1125 C.3     
   8 N8             1.7345     2.4352    -1.2868 N.3     
   9 C9             2.8441     3.3941    -1.3719 C.3     
  10 C10            3.0211     3.8319    -2.8030 C.2     
  11 N11            3.9869     4.7159    -3.1228 N.am    
  12 C12            4.1768     5.1564    -4.5131 C.3     
  13 C13            4.2057     6.6883    -4.5387 C.3     
  14 N14            5.2179     7.1717    -3.5902 N.3     
  15 C15            4.8802     6.7932    -2.2116 C.3     
  16 C16            4.8750     5.2702    -2.0897 C.3     
  17 C17            5.3896     8.5548    -3.7023 C.ar    
  18 C18            5.0122     9.3893    -2.6590 C.ar    
  19 C19            5.1829    10.7556    -2.7723 C.ar    
  20 C20            5.7289    11.2931    -3.9242 C.ar    
  21 C21            6.1058    10.4643    -4.9667 C.ar    
  22 C22            5.9437     9.0965    -4.8564 C.ar    
  23 Cl23           5.9411    13.0105    -4.0628 Cl      
  24 Cl24           6.4166     8.0571    -6.1640 Cl      
  25 O25            2.2944     3.3887    -3.6670 O.2     
  26 C26            2.0592     1.1901    -1.9955 C.3     
  27 H27            1.0426    -0.5418     0.1001 H       
  28 H28           -1.0893    -1.7719     0.1820 H       
  29 H29           -3.2493     1.7698     0.3096 H       
  30 H30           -1.1821     3.1062     0.2387 H       
  31 H31            1.2459     3.1105     0.6416 H       
  32 H32            2.1723     1.5916     0.5867 H       
  33 H33            2.6225     4.2622    -0.7511 H       
  34 H34            3.7610     2.9208    -1.0207 H       
  35 H35            5.1200     4.7660    -4.8954 H       
  36 H36            3.3520     4.7954    -5.1275 H       
  37 H37            4.4554     7.0306    -5.5430 H       
  38 H38            3.2270     7.0753    -4.2549 H       
  39 H39            5.6191     7.2116    -1.5282 H       
  40 H40            3.8921     7.1787    -1.9602 H       
  41 H41            4.5142     4.9832    -1.1020 H       
  42 H42            5.8846     4.8874    -2.2394 H       
  43 H43            4.5852     8.9707    -1.7596 H       
  44 H44            4.8893    11.4049    -1.9607 H       
  45 H45            6.5312    10.8866    -5.8651 H       
  46 H46            1.1954     0.5256    -1.9769 H       
  47 H47            2.3202     1.4178    -3.0290 H       
  48 H48            2.9029     0.7031    -1.5065 H       
@<TRIPOS>BOND
   1    1    2 ar
   2    1    7 1
   3    1    6 ar
   4    2    3 ar
   5    2   27 1
   6    3    4 ar
   7    3   28 1
   8    4    5 ar
   9    5    6 ar
  10    5   29 1
  11    6   30 1
  12    7    8 1
  13    7   31 1
  14    7   32 1
  15    8    9 1
  16    8   26 1
  17    9   10 1
  18    9   33 1
  19    9   34 1
  20   10   11 am
  21   10   25 2
  22   11   12 1
  23   11   16 1
  24   12   13 1
  25   12   35 1
  26   12   36 1
  27   13   14 1
  28   13   37 1
  29   13   38 1
  30   14   15 1
  31   14   17 1
  32   15   16 1
  33   15   39 1
  34   15   40 1
  35   16   41 1
  36   16   42 1
  37   17   18 ar
  38   17   22 ar
  39   18   19 ar
  40   18   43 1
  41   19   20 ar
  42   19   44 1
  43   20   21 ar
  44   20   23 1
  45   21   22 ar
  46   21   45 1
  47   22   24 1
  48   26   46 1
  49   26   47 1
  50   26   48 1

#	End of record

