#	Name: ASD01000038
#	Creating user name:	WinNT
#	Creation time:	15. 06. 2019 18:54

#	Modifying user name:	WinNT
#	Modification time:	15. 06. 2019 18:54

#	Program:	/corina/corina34_cracker 3.40 0067  02.08.2006

@<TRIPOS>MOLECULE
ASD01000038
  45   47    0    0    0
SMALL
NO_CHARGES


@<TRIPOS>ATOM
   1 C1             0.0646     1.4998     0.1540 C.3     
   2 C2             4.4576    -3.5480    -0.0264 C.ar    
   3 C3             3.3296    -3.0377    -0.6520 C.ar    
   4 C4             2.2035    -2.7408     0.0914 C.ar    
   5 C5             2.2003    -2.9518     1.4577 C.ar    
   6 C6             3.3238    -3.4600     2.0838 C.ar    
   7 C7             4.4501    -3.7639     1.3442 C.ar    
   8 C8             0.9779    -2.1859    -0.5875 C.3     
   9 N9            -0.2048    -2.8169     0.0230 N.am    
  10 C10            1.0544    -0.6741    -0.5279 C.2     
  11 C11            0.0425    -0.0064     0.0721 C.2     
  12 N12           -1.0125    -0.6872     0.6104 N.am    
  13 C13           -1.1318    -2.0189     0.5887 C.2     
  14 C14            2.1538    -0.0114    -1.0843 C.2     
  15 S15           -2.5119    -2.7358     1.3047 S.2     
  16 O16            3.0332    -0.6539    -1.6228 O.2     
  17 O17            5.5665    -3.8408    -0.7555 O.3     
  18 C18            2.2595     1.4906    -1.0223 C.3     
  19 C19            1.5130     1.9894     0.2194 C.3     
  20 C20           -2.5661     1.2233     4.8976 C.3     
  21 C21           -2.8779     1.0612     3.4085 C.3     
  22 C22           -1.7657     0.2508     2.7398 C.3     
  23 C23           -2.0775     0.0887     1.2507 C.3     
  24 H24           -0.4205     1.9183    -0.7278 H       
  25 H25           -0.4682     1.8225     1.0484 H       
  26 H26            3.3317    -2.8723    -1.7193 H       
  27 H27            1.3191    -2.7191     2.0371 H       
  28 H28            3.3191    -3.6233     3.1513 H       
  29 H29            5.3270    -4.1611     1.8336 H       
  30 H30            1.0141    -2.4828    -1.6357 H       
  31 H31           -0.3134    -3.7808     0.0181 H       
  32 H32            6.1880    -3.1047    -0.8389 H       
  33 H33            3.3084     1.7805    -0.9599 H       
  34 H34            1.8112     1.9254    -1.9156 H       
  35 H35            1.5297     3.0790     0.2424 H       
  36 H36            1.9916     1.5957     1.1161 H       
  37 H37           -3.3585     1.8006     5.3740 H       
  38 H38           -2.5018     0.2404     5.3644 H       
  39 H39           -1.6160     1.7443     5.0153 H       
  40 H40           -3.8281     0.5401     3.2909 H       
  41 H41           -2.9423     2.0440     2.9417 H       
  42 H42           -0.8156     0.7719     2.8575 H       
  43 H43           -1.7013    -0.7321     3.2066 H       
  44 H44           -2.1419     1.0716     0.7839 H       
  45 H45           -3.0277    -0.4323     1.1331 H       
@<TRIPOS>BOND
   1    1   11 1
   2    1   19 1
   3    1   24 1
   4    1   25 1
   5    2    3 ar
   6    2   17 1
   7    2    7 ar
   8    3    4 ar
   9    3   26 1
  10    4    5 ar
  11    4    8 1
  12    5    6 ar
  13    5   27 1
  14    6    7 ar
  15    6   28 1
  16    7   29 1
  17    8    9 1
  18    8   10 1
  19    8   30 1
  20    9   13 am
  21    9   31 1
  22   10   11 2
  23   10   14 1
  24   11   12 1
  25   12   23 1
  26   12   13 am
  27   13   15 2
  28   14   16 2
  29   14   18 1
  30   17   32 1
  31   18   19 1
  32   18   33 1
  33   18   34 1
  34   19   35 1
  35   19   36 1
  36   20   21 1
  37   20   37 1
  38   20   38 1
  39   20   39 1
  40   21   22 1
  41   21   40 1
  42   21   41 1
  43   22   23 1
  44   22   42 1
  45   22   43 1
  46   23   44 1
  47   23   45 1

#	End of record

