#	Name: ASD01910736
#	Creating user name:	WinNT
#	Creation time:	15. 06. 2019 19:56

#	Modifying user name:	WinNT
#	Modification time:	15. 06. 2019 19:56

#	Program:	/corina/corina34_cracker 3.40 0067  02.08.2006

@<TRIPOS>MOLECULE
ASD01910736
  54   57    0    0    0
SMALL
NO_CHARGES


@<TRIPOS>ATOM
   1 C1            12.4227    -2.2973     4.1734 C.ar    
   2 N2            12.9672    -2.4577     2.9790 N.ar    
   3 C3            12.2909    -2.1304     1.8944 C.ar    
   4 C4            11.0018    -1.6152     2.0091 C.ar    
   5 N5            10.4595    -1.4560     3.2095 N.ar    
   6 C6            11.1440    -1.7865     4.2914 C.ar    
   7 N7            10.2857    -1.2685     0.8693 N.3     
   8 C8             8.9571    -0.7493     1.2199 C.3     
   9 C9             8.2729    -0.2122    -0.0418 C.3     
  10 N10            8.2773    -1.2713    -1.0624 N.am    
  11 C11            9.5528    -1.9360    -1.3700 C.3     
  12 C12           10.1865    -2.4051    -0.0561 C.3     
  13 C13            7.1426    -1.6236    -1.6985 C.2     
  14 C14            7.1894    -2.6011    -2.8071 C.ar    
  15 O15            6.0807    -1.1379    -1.3610 O.2     
  16 C16            6.1834    -3.5607    -2.9369 C.ar    
  17 C17            6.2256    -4.4738    -3.9718 C.ar    
  18 C18            7.2613    -4.4450    -4.8843 C.ar    
  19 C19            8.2739    -3.4906    -4.7662 C.ar    
  20 C20            8.2346    -2.5630    -3.7281 C.ar    
  21 C21            9.3476    -3.4625    -5.7133 C.1     
  22 C22           10.2278    -3.4395    -6.4898 C.1     
  23 C23           11.3315    -3.4106    -7.4633 C.3     
  24 C24            7.2995    -5.4462    -6.0101 C.3     
  25 C25           12.2817    -2.2948    -7.1126 C.ar    
  26 C26           13.3452    -2.5341    -6.2624 C.ar    
  27 C27           14.2168    -1.5106    -5.9406 C.ar    
  28 C28           14.0252    -0.2478    -6.4693 C.ar    
  29 C29           12.9623    -0.0087    -7.3202 C.ar    
  30 C30           12.0932    -1.0333    -7.6454 C.ar    
  31 H31           12.9773    -2.5705     5.0591 H       
  32 H32           12.7362    -2.2613     0.9192 H       
  33 H33           10.7031    -1.6571     5.2688 H       
  34 H34            8.3545    -1.5507     1.6473 H       
  35 H35            9.0615     0.0555     1.9476 H       
  36 H36            7.2456     0.0686     0.1901 H       
  37 H37            8.8180     0.6558    -0.4125 H       
  38 H38            9.3716    -2.7948    -2.0163 H       
  39 H39           10.2208    -1.2336    -1.8685 H       
  40 H40           11.1826    -2.8013    -0.2537 H       
  41 H41            9.5668    -3.1835     0.3891 H       
  42 H42            5.3708    -3.5890    -2.2260 H       
  43 H43            5.4450    -5.2140    -4.0678 H       
  44 H44            9.0150    -1.8225    -3.6325 H       
  45 H45           11.8631    -4.3619    -7.4382 H       
  46 H46           10.9299    -3.2451    -8.4630 H       
  47 H47            6.7697    -5.0429    -6.8731 H       
  48 H48            8.3357    -5.6481    -6.2817 H       
  49 H49            6.8209    -6.3716    -5.6897 H       
  50 H50           13.4948    -3.5207    -5.8494 H       
  51 H51           15.0472    -1.6974    -5.2759 H       
  52 H52           14.7057     0.5521    -6.2174 H       
  53 H53           12.8124     0.9780    -7.7330 H       
  54 H54           11.2628    -0.8464    -8.3102 H       
@<TRIPOS>BOND
   1    1    2 ar
   2    1    6 ar
   3    1   31 1
   4    2    3 ar
   5    3    4 ar
   6    3   32 1
   7    4    5 ar
   8    4    7 1
   9    5    6 ar
  10    6   33 1
  11    7    8 1
  12    7   12 1
  13    8    9 1
  14    8   34 1
  15    8   35 1
  16    9   10 1
  17    9   36 1
  18    9   37 1
  19   10   11 1
  20   10   13 am
  21   11   12 1
  22   11   38 1
  23   11   39 1
  24   12   40 1
  25   12   41 1
  26   13   14 1
  27   13   15 2
  28   14   16 ar
  29   14   20 ar
  30   16   17 ar
  31   16   42 1
  32   17   18 ar
  33   17   43 1
  34   18   19 ar
  35   18   24 1
  36   19   20 ar
  37   19   21 1
  38   20   44 1
  39   21   22 3
  40   22   23 1
  41   23   25 1
  42   23   45 1
  43   23   46 1
  44   24   47 1
  45   24   48 1
  46   24   49 1
  47   25   26 ar
  48   25   30 ar
  49   26   27 ar
  50   26   50 1
  51   27   28 ar
  52   27   51 1
  53   28   29 ar
  54   28   52 1
  55   29   30 ar
  56   29   53 1
  57   30   54 1

#	End of record

