#	Name: ASD01914948
#	Creating user name:	WinNT
#	Creation time:	15. 06. 2019 20:04

#	Modifying user name:	WinNT
#	Modification time:	15. 06. 2019 20:04

#	Program:	/corina/corina34_cracker 3.40 0067  02.08.2006

@<TRIPOS>MOLECULE
ASD01914948
  61   65    0    0    0
SMALL
NO_CHARGES


@<TRIPOS>ATOM
   1 C1            -0.0036     1.3306    -0.0211 C.2     
   2 N2             0.0142     0.0584     0.3178 N.2     
   3 C3             1.3077     1.7203    -0.3417 C.2     
   4 C4             2.1160     0.6330    -0.1826 C.2     
   5 N5             1.3324    -0.4057     0.2255 N.pl3   
   6 C6            -1.2043     2.2022    -0.0635 C.ar    
   7 C7            -1.1038     3.5074    -0.5409 C.ar    
   8 C8            -2.2224     4.3140    -0.5790 C.ar    
   9 C9            -3.4446     3.8280    -0.1430 C.ar    
  10 C10           -3.5489     2.5312     0.3327 C.ar    
  11 C11           -2.4361     1.7157     0.3684 C.ar    
  12 C12            3.5775     0.5888    -0.4113 C.ar    
  13 C13            1.7890    -1.7669     0.5169 C.3     
  14 C14            2.0671    -1.8985     1.9922 C.2     
  15 N15            2.5011    -3.0715     2.4942 N.am    
  16 O16            1.9002    -0.9487     2.7278 O.2     
  17 C17            2.7765    -3.2152     3.9302 C.3     
  18 C18            4.2001    -3.7522     4.1080 C.3     
  19 C19            4.3571    -5.0458     3.3054 C.3     
  20 C20            4.1319    -4.7567     1.8195 C.3     
  21 C21            2.7021    -4.2327     1.6167 C.3     
  22 C22            4.1832     1.5216    -1.2532 C.ar    
  23 C23            5.5463     1.4751    -1.4624 C.ar    
  24 C24            6.3120     0.5060    -0.8392 C.ar    
  25 C25            5.7172    -0.4219    -0.0031 C.ar    
  26 C26            4.3559    -0.3823     0.2187 C.ar    
  27 C27            5.7461    -5.5951     3.5051 C.ar    
  28 C28            6.7834    -5.1328     2.7172 C.ar    
  29 N29            5.9589    -6.5073     4.4331 N.ar    
  30 C30            7.1572    -7.0163     4.6434 C.ar    
  31 C31            8.2413    -6.6063     3.8910 C.ar    
  32 C32            8.0574    -5.6447     2.9090 C.ar    
  33 C33           -4.8806     2.0082     0.8060 C.3     
  34 F34           -4.5375     4.6212    -0.1816 F       
  35 H35            1.6199     2.7047    -0.6576 H       
  36 H36           -0.1514     3.8872    -0.8802 H       
  37 H37           -2.1454     5.3258    -0.9488 H       
  38 H38           -2.5184     0.7046     0.7391 H       
  39 H39            1.0161    -2.4791     0.2279 H       
  40 H40            2.7006    -1.9723    -0.0443 H       
  41 H41            2.6885    -2.2445     4.4181 H       
  42 H42            2.0649    -3.9136     4.3706 H       
  43 H43            4.9155    -3.0123     3.7490 H       
  44 H44            4.3836    -3.9543     5.1633 H       
  45 H45            3.6249    -5.7769     3.6481 H       
  46 H46            4.8479    -4.0073     1.4821 H       
  47 H47            4.2669    -5.6737     1.2459 H       
  48 H48            1.9869    -5.0158     1.8683 H       
  49 H49            2.5672    -3.9318     0.5777 H       
  50 H50            3.5864     2.2784    -1.7406 H       
  51 H51            6.0163     2.1966    -2.1144 H       
  52 H52            7.3784     0.4735    -1.0064 H       
  53 H53            6.3203    -1.1761     0.4806 H       
  54 H54            3.8927    -1.1073     0.8716 H       
  55 H55            6.6036    -4.3825     1.9614 H       
  56 H56            7.2929    -7.7620     5.4128 H       
  57 H57            9.2203    -7.0264     4.0684 H       
  58 H58            8.8862    -5.3054     2.3054 H       
  59 H59           -5.4091     1.5502    -0.0301 H       
  60 H60           -4.7221     1.2644     1.5869 H       
  61 H61           -5.4739     2.8317     1.2035 H       
@<TRIPOS>BOND
   1    1    2 2
   2    1    3 1
   3    1    6 1
   4    2    5 1
   5    3    4 2
   6    3   35 1
   7    4    5 1
   8    4   12 1
   9    5   13 1
  10    6    7 ar
  11    6   11 ar
  12    7    8 ar
  13    7   36 1
  14    8    9 ar
  15    8   37 1
  16    9   10 ar
  17    9   34 1
  18   10   11 ar
  19   10   33 1
  20   11   38 1
  21   12   22 ar
  22   12   26 ar
  23   13   14 1
  24   13   39 1
  25   13   40 1
  26   14   15 am
  27   14   16 2
  28   15   17 1
  29   15   21 1
  30   17   18 1
  31   17   41 1
  32   17   42 1
  33   18   19 1
  34   18   43 1
  35   18   44 1
  36   19   20 1
  37   19   27 1
  38   19   45 1
  39   20   21 1
  40   20   46 1
  41   20   47 1
  42   21   48 1
  43   21   49 1
  44   22   23 ar
  45   22   50 1
  46   23   24 ar
  47   23   51 1
  48   24   25 ar
  49   24   52 1
  50   25   26 ar
  51   25   53 1
  52   26   54 1
  53   27   28 ar
  54   27   29 ar
  55   28   32 ar
  56   28   55 1
  57   29   30 ar
  58   30   31 ar
  59   30   56 1
  60   31   32 ar
  61   31   57 1
  62   32   58 1
  63   33   59 1
  64   33   60 1
  65   33   61 1

#	End of record

