#	Name: ASD01230247
#	Creating user name:	WinNT
#	Creation time:	15. 06. 2019 19:12

#	Modifying user name:	WinNT
#	Modification time:	15. 06. 2019 19:12

#	Program:	/corina/corina34_cracker 3.40 0067  02.08.2006

@<TRIPOS>MOLECULE
ASD01230247
  62   74    0    0    0
SMALL
NO_CHARGES


@<TRIPOS>ATOM
   1 C1            -0.0177     1.4569     0.0101 C.3     
   2 N2             0.0021    -0.0041     0.0020 N.3     
   3 O3             1.2862     2.0826     0.0010 O.3     
   4 C4             6.6838    -0.7642     1.7214 C.3     
   5 N5             6.5556     0.6702     2.0585 N.3     
   6 O6             5.4674    -1.5595     1.5273 O.3     
   7 C7            -0.8536     1.7026     1.2572 C.3     
   8 O8             1.2419    -1.9094    -0.9221 O.3     
   9 C9             7.4719    -0.7007     0.3831 C.3     
  10 O10            5.2350     2.2650     3.2579 O.3     
  11 C11           -1.9183     0.6306     1.0449 C.3     
  12 O12            5.5663     2.9494     0.8902 O.3     
  13 C13            8.2619     0.5749     0.4853 C.3     
  14 O14            0.7001    -0.2846     2.0469 O.3     
  15 C15           -1.0527    -0.6242     0.8117 C.3     
  16 O16            5.7862     1.3931    -1.3284 O.3     
  17 C17            7.4775     1.5657     1.3306 C.3     
  18 O18            1.0770    -1.6853     3.5483 O.3     
  19 C19            1.2738    -0.7564    -0.0638 C.3     
  20 C20            5.2183     1.2533     2.2308 C.3     
  21 C21            2.5205     0.1611    -0.0886 C.3     
  22 C22            3.9649     0.3812     2.2982 C.3     
  23 C23            2.1683     1.2920     0.8400 C.3     
  24 C24            4.2831    -0.7607     1.3402 C.3     
  25 C25            3.4165     1.6659     1.6834 C.3     
  26 C26            2.9831    -1.1312     0.5676 C.3     
  27 C27            4.7256     1.7796     0.8933 C.3     
  28 C28            1.7074    -0.9066     1.3798 C.3     
  29 C29            4.7451     1.2017    -0.4882 C.2     
  30 C30            1.9650    -0.9163     2.8913 C.2     
  31 C31            3.7661     0.3990    -0.9067 C.2     
  32 C32            2.9213    -0.0937     3.2779 C.2     
  33 C33            6.7631     2.3819    -1.0769 C.3     
  34 C34           -0.2240    -2.0318     3.0308 C.3     
  35 C35            6.8938     2.6326     0.4112 C.3     
  36 C36           -0.6226    -0.7093     2.2882 C.3     
  37 H37           -0.5709     1.8096    -0.8643 H       
  38 H38            7.3026    -1.2494     2.4736 H       
  39 H39           -0.2922     1.5600     2.1751 H       
  40 H40           -1.3002     2.7039     1.2392 H       
  41 H41            0.4941    -2.5005    -0.7591 H       
  42 H42            8.1420    -1.5532     0.2951 H       
  43 H43            6.7886    -0.6569    -0.4614 H       
  44 H44            5.6447     1.9784     4.0856 H       
  45 H45           -2.5621     0.5222     1.9210 H       
  46 H46           -2.5298     0.8553     0.1623 H       
  47 H47            9.2137     0.3569     0.9852 H       
  48 H48            8.4691     0.9689    -0.5007 H       
  49 H49           -1.5556    -1.5097     0.3816 H       
  50 H50            8.1583     2.0444     2.0582 H       
  51 H51            1.4878     1.0865     1.6204 H       
  52 H52            4.7726    -0.1872     0.6485 H       
  53 H53            3.2190     2.4925     2.3749 H       
  54 H54            3.0559    -2.0827     0.0060 H       
  55 H55            3.8706    -0.0908    -1.8560 H       
  56 H56            2.9550     0.2390     4.3044 H       
  57 H57            7.7181     2.0935    -1.5054 H       
  58 H58            6.4472     3.3164    -1.5605 H       
  59 H59           -0.1472    -2.8578     2.3354 H       
  60 H60           -0.9092    -2.2376     3.8444 H       
  61 H61            7.4962     3.5429     0.5351 H       
  62 H62           -1.1735    -0.0399     2.9397 H       
@<TRIPOS>BOND
   1    1    2 1
   2    1    3 1
   3    1    7 1
   4    1   37 1
   5    2   15 1
   6    2   19 1
   7    3   23 1
   8    4    5 1
   9    4    6 1
  10    4    9 1
  11    4   38 1
  12    5   17 1
  13    5   20 1
  14    6   24 1
  15    7   11 1
  16    7   39 1
  17    7   40 1
  18    8   19 1
  19    8   41 1
  20    9   13 1
  21    9   42 1
  22    9   43 1
  23   10   20 1
  24   10   44 1
  25   11   15 1
  26   11   45 1
  27   11   46 1
  28   12   27 1
  29   12   35 1
  30   13   17 1
  31   13   47 1
  32   13   48 1
  33   14   28 1
  34   14   36 1
  35   15   36 1
  36   15   49 1
  37   16   29 1
  38   16   33 1
  39   17   35 1
  40   17   50 1
  41   18   30 1
  42   18   34 1
  43   19   21 1
  44   19   28 1
  45   20   22 1
  46   20   27 1
  47   21   23 1
  48   21   31 1
  49   21   26 1
  50   22   24 1
  51   22   32 1
  52   22   25 1
  53   23   25 1
  54   23   51 1
  55   24   26 1
  56   24   52 1
  57   25   27 1
  58   25   53 1
  59   26   28 1
  60   26   54 1
  61   27   29 1
  62   28   30 1
  63   29   31 2
  64   30   32 2
  65   31   55 1
  66   32   56 1
  67   33   35 1
  68   33   57 1
  69   33   58 1
  70   34   36 1
  71   34   59 1
  72   34   60 1
  73   35   61 1
  74   36   62 1

#	End of record

