#	Name: ASD07932093
#	Creating user name:	WinNT
#	Creation time:	15. 06. 2019 21:14

#	Modifying user name:	WinNT
#	Modification time:	15. 06. 2019 21:14

#	Program:	/corina/corina34_cracker 3.40 0067  02.08.2006

@<TRIPOS>MOLECULE
ASD07932093
  48   50    0    0    0
SMALL
NO_CHARGES


@<TRIPOS>ATOM
   1 N1            -0.0071     1.4420     0.1904 N.pl3   
   2 C2             0.0028    -0.0167     0.0386 C.3     
   3 C3             0.8012    -0.6401     1.1918 C.3     
   4 S4             2.4678     0.0924     1.1941 S.o2    
   5 N5             2.1504     1.7268     1.1280 N.am    
   6 C6             1.1839     2.1382     0.2212 C.2     
   7 C7             2.8568     2.6823     1.9849 C.3     
   8 N8             1.3942     3.1484    -0.5752 N.2     
   9 O9             3.1008    -0.0983     2.4519 O.2     
  10 O10            3.1444    -0.1899    -0.0232 O.2     
  11 C11           -1.4119    -0.5353     0.0678 C.ar    
  12 C12            0.6563    -0.3873    -1.2943 C.3     
  13 C13           -2.4665     0.3449     0.2080 C.ar    
  14 C14           -3.7702    -0.1338     0.2348 C.ar    
  15 C15           -4.0092    -1.4970     0.1206 C.ar    
  16 C16           -2.9505    -2.3731    -0.0195 C.ar    
  17 C17           -1.6532    -1.8930    -0.0516 C.ar    
  18 N18           -4.8404     0.7556     0.3772 N.am    
  19 C19           -6.0106     0.5067    -0.2433 C.2     
  20 O20           -6.1074    -0.4383    -1.0017 O.2     
  21 C21           -7.1775     1.3837    -0.0014 C.ar    
  22 C22           -8.3869     1.1211    -0.6467 C.ar    
  23 Cl23          -0.3250    -2.9968    -0.2277 Cl      
  24 C24           -9.4726     1.9549    -0.4080 C.ar    
  25 C25           -9.3095     3.0174     0.4647 C.ar    
  26 C26           -8.0782     3.2178     1.0705 C.ar    
  27 N27           -7.0678     2.4117     0.8324 N.ar    
  28 F28           -8.5002     0.0725    -1.4910 F       
  29 C29          -10.4593     3.9478     0.7532 C.3     
  30 F30          -11.1852     3.4666     1.8480 F       
  31 F31           -9.9648     5.2234     1.0457 F       
  32 F32          -11.2952     4.0172    -0.3665 F       
  33 H33           -0.8496     1.9170     0.2649 H       
  34 H34            0.3052    -0.4279     2.1389 H       
  35 H35            0.8738    -1.7181     1.0479 H       
  36 H36            3.7558     3.0307     1.4764 H       
  37 H37            2.2065     3.5313     2.1955 H       
  38 H38            3.1338     2.1959     2.9202 H       
  39 H39            2.2376     3.6262    -0.5401 H       
  40 H40            1.6800    -0.0134    -1.3133 H       
  41 H41            0.6634    -1.4715    -1.4065 H       
  42 H42            0.0912     0.0590    -2.1126 H       
  43 H43           -2.2779     1.4046     0.2970 H       
  44 H44           -5.0218    -1.8718     0.1415 H       
  45 H45           -3.1358    -3.4334    -0.1080 H       
  46 H46           -4.7403     1.5515     0.9225 H       
  47 H47          -10.4217     1.7784    -0.8922 H       
  48 H48           -7.9490     4.0460     1.7516 H       
@<TRIPOS>BOND
   1    1    2 1
   2    1    6 1
   3    1   33 1
   4    2    3 1
   5    2   11 1
   6    2   12 1
   7    3    4 1
   8    3   34 1
   9    3   35 1
  10    4    5 am
  11    4    9 2
  12    4   10 2
  13    5    6 1
  14    5    7 1
  15    6    8 2
  16    7   36 1
  17    7   37 1
  18    7   38 1
  19    8   39 1
  20   11   13 ar
  21   11   17 ar
  22   12   40 1
  23   12   41 1
  24   12   42 1
  25   13   14 ar
  26   13   43 1
  27   14   15 ar
  28   14   18 1
  29   15   16 ar
  30   15   44 1
  31   16   17 ar
  32   16   45 1
  33   17   23 1
  34   18   19 am
  35   18   46 1
  36   19   20 2
  37   19   21 1
  38   21   22 ar
  39   21   27 ar
  40   22   24 ar
  41   22   28 1
  42   24   25 ar
  43   24   47 1
  44   25   26 ar
  45   25   29 1
  46   26   27 ar
  47   26   48 1
  48   29   30 1
  49   29   31 1
  50   29   32 1

#	End of record

