#	Name: ASD01148791
#	Creating user name:	WinNT
#	Creation time:	15. 06. 2019 19:03

#	Modifying user name:	WinNT
#	Modification time:	15. 06. 2019 19:03

#	Program:	/corina/corina34_cracker 3.40 0067  02.08.2006

@<TRIPOS>MOLECULE
ASD01148791
  54   57    0    0    0
SMALL
NO_CHARGES


@<TRIPOS>ATOM
   1 N1             0.0405     1.4028    -0.1714 N.pl3   
   2 C2             0.0155     0.0595    -0.3327 C.2     
   3 C3             1.2663    -0.4476    -0.0522 C.2     
   4 C4             2.1081     0.7047     0.3084 C.2     
   5 C5             1.2938     1.8154     0.2156 C.2     
   6 C6             1.6773    -1.8576    -0.1031 C.2     
   7 O7             2.1213    -2.3245    -1.1340 O.2     
   8 O8             1.5620    -2.6332     0.9935 O.3     
   9 C9             4.5156     1.1625    -0.0965 C.2     
  10 C10            3.5383     0.6778     0.6934 C.2     
  11 C11            3.9846     0.1486     1.9039 C.2     
  12 C12            5.3009     0.2048     2.0887 C.2     
  13 S13            6.0709     0.9542     0.6971 S.3     
  14 C14           -1.0537     2.2532    -0.3755 C.ar    
  15 C15           -2.1367     2.2140     0.4927 C.ar    
  16 C16           -3.2142     3.0537     0.2887 C.ar    
  17 C17           -3.2151     3.9328    -0.7787 C.ar    
  18 C18           -2.1381     3.9742    -1.6451 C.ar    
  19 C19           -1.0552     3.1410    -1.4431 C.ar    
  20 S20           -4.5918     5.0020    -1.0359 S.o2    
  21 O21           -4.5802     5.3468    -2.4144 O.2     
  22 O22           -5.7025     4.3866    -0.3980 O.2     
  23 N23           -4.2892     6.4001    -0.2016 N.am    
  24 C24           -1.1847    -0.7505    -0.7502 C.3     
  25 C25            1.6993     3.2088     0.4857 C.ar    
  26 C26            2.7774     3.7713    -0.2016 C.ar    
  27 C27            3.1510     5.0739     0.0551 C.ar    
  28 C28            2.4597     5.8238     0.9919 C.ar    
  29 C29            1.3903     5.2718     1.6771 C.ar    
  30 C30            1.0030     3.9723     1.4256 C.ar    
  31 Cl31           2.9363     7.4627     1.3092 Cl      
  32 C32            1.9873    -4.0161     0.8704 C.3     
  33 C33            1.7829    -4.7334     2.2063 C.3     
  34 H34            4.3673     1.6066    -1.0698 H       
  35 H35            3.3127    -0.2746     2.6359 H       
  36 H36            5.8198    -0.1562     2.9644 H       
  37 H37           -2.1367     1.5274     1.3263 H       
  38 H38           -4.0570     3.0235     0.9634 H       
  39 H39           -2.1420     4.6616    -2.4781 H       
  40 H40           -0.2122     3.1772    -2.1173 H       
  41 H41           -3.4658     6.4957     0.3022 H       
  42 H42           -4.9353     7.1235    -0.2168 H       
  43 H43           -1.2077    -0.8324    -1.8368 H       
  44 H44           -1.1211    -1.7466    -0.3120 H       
  45 H45           -2.0935    -0.2585    -0.4036 H       
  46 H46            3.3175     3.1874    -0.9322 H       
  47 H47            3.9846     5.5099    -0.4754 H       
  48 H48            0.8558     5.8617     2.4071 H       
  49 H49            0.1658     3.5446     1.9571 H       
  50 H50            1.3973    -4.5104     0.0986 H       
  51 H51            3.0422    -4.0489     0.5980 H       
  52 H52            2.3730    -4.2391     2.9781 H       
  53 H53            0.7280    -4.7006     2.4786 H       
  54 H54            2.1022    -5.7715     2.1139 H       
@<TRIPOS>BOND
   1    1    2 1
   2    1    5 1
   3    1   14 1
   4    2    3 2
   5    2   24 1
   6    3    4 1
   7    3    6 1
   8    4    5 2
   9    4   10 1
  10    5   25 1
  11    6    7 2
  12    6    8 1
  13    8   32 1
  14    9   10 2
  15    9   13 1
  16    9   34 1
  17   10   11 1
  18   11   12 2
  19   11   35 1
  20   12   13 1
  21   12   36 1
  22   14   15 ar
  23   14   19 ar
  24   15   16 ar
  25   15   37 1
  26   16   17 ar
  27   16   38 1
  28   17   18 ar
  29   17   20 1
  30   18   19 ar
  31   18   39 1
  32   19   40 1
  33   20   21 2
  34   20   22 2
  35   20   23 am
  36   23   41 1
  37   23   42 1
  38   24   43 1
  39   24   44 1
  40   24   45 1
  41   25   26 ar
  42   25   30 ar
  43   26   27 ar
  44   26   46 1
  45   27   28 ar
  46   27   47 1
  47   28   29 ar
  48   28   31 1
  49   29   30 ar
  50   29   48 1
  51   30   49 1
  52   32   33 1
  53   32   50 1
  54   32   51 1
  55   33   52 1
  56   33   53 1
  57   33   54 1

#	End of record

