#	Name: ASD01140735
#	Creating user name:	WinNT
#	Creation time:	15. 06. 2019 19:01

#	Modifying user name:	WinNT
#	Modification time:	15. 06. 2019 19:01

#	Program:	/corina/corina34_cracker 3.40 0067  02.08.2006

@<TRIPOS>MOLECULE
ASD01140735
  56   60    0    0    0
SMALL
NO_CHARGES


@<TRIPOS>ATOM
   1 C1            -0.0184     1.5028     0.0103 C.3     
   2 C2             0.0021    -0.0041     0.0020 C.ar    
   3 C3             0.0058    -0.6901    -1.2027 C.ar    
   4 C4             0.0253    -2.0768    -1.1642 C.ar    
   5 C5             0.0400    -2.6954     0.0873 C.ar    
   6 N6             0.0349    -1.9524     1.1870 N.ar    
   7 N7             0.0219    -0.6697     1.1420 N.ar    
   8 C8             0.0606    -4.1765     0.1876 C.2     
   9 N9            -0.3696    -5.0319    -0.7062 N.2     
  10 O10           -0.2173    -6.1725    -0.3352 O.3     
  11 C11            0.3461    -6.2306     0.8798 C.2     
  12 C12            0.6855    -7.4772     1.6556 C.3     
  13 C13            0.1816    -8.8121     1.1035 C.3     
  14 C14            1.6682    -8.4609     1.0173 C.3     
  15 C15            0.5572    -4.9532     1.2711 C.2     
  16 C16            1.1722    -4.4658     2.5577 C.3     
  17 O17            0.1480    -4.2904     3.5387 O.3     
  18 C18            0.5357    -3.8531     4.7614 C.ar    
  19 C19           -0.4101    -3.6657     5.7670 C.ar    
  20 C20            0.0314    -3.2177     7.0004 C.ar    
  21 C21            1.4011    -2.9805     7.1608 C.ar    
  22 N22            2.2295    -3.1874     6.1440 N.ar    
  23 N23            1.8173    -3.6082     5.0035 N.ar    
  24 C24            1.9244    -2.5005     8.4586 C.2     
  25 O25            1.1641    -2.3115     9.3879 O.2     
  26 N26            3.2440    -2.2729     8.6106 N.am    
  27 C27            3.7622    -1.7976     9.8958 C.3     
  28 C28            4.0226    -2.9933    10.8171 C.3     
  29 C29            4.6371    -2.4937    12.1273 C.3     
  30 O30            5.8398    -1.7757    11.8445 O.3     
  31 C31            5.6506    -0.6199    11.0257 C.3     
  32 C32            5.0769    -1.0442     9.6712 C.3     
  33 H33            1.0042     1.8801     0.0026 H       
  34 H34           -0.5455     1.8639    -0.8728 H       
  35 H35           -0.5286     1.8543     0.9071 H       
  36 H36           -0.0065    -0.1605    -2.1439 H       
  37 H37            0.0286    -2.6594    -2.0735 H       
  38 H38            0.7213    -7.3615     2.7389 H       
  39 H39           -0.1145    -9.5750     1.8235 H       
  40 H40           -0.3955    -8.7887     0.1790 H       
  41 H41            2.0693    -8.2065     0.0362 H       
  42 H42            2.3503    -8.9928     1.6807 H       
  43 H43            1.8958    -5.1985     2.9149 H       
  44 H44            1.6745    -3.5144     2.3827 H       
  45 H45           -1.4568    -3.8638     5.5895 H       
  46 H46           -0.6604    -3.0558     7.8138 H       
  47 H47            3.8508    -2.4238     7.8689 H       
  48 H48            3.0343    -1.1309    10.3583 H       
  49 H49            3.0823    -3.5031    11.0269 H       
  50 H50            4.7120    -3.6839    10.3315 H       
  51 H51            3.9306    -1.8348    12.6321 H       
  52 H52            4.8640    -3.3443    12.7699 H       
  53 H53            4.9574     0.0634    11.5161 H       
  54 H54            6.6077    -0.1207    10.8747 H       
  55 H55            5.7876    -1.6955     9.1625 H       
  56 H56            4.8905    -0.1601     9.0615 H       
@<TRIPOS>BOND
   1    1    2 1
   2    1   33 1
   3    1   34 1
   4    1   35 1
   5    2    7 ar
   6    2    3 ar
   7    3    4 ar
   8    3   36 1
   9    4    5 ar
  10    4   37 1
  11    5    6 ar
  12    5    8 1
  13    6    7 ar
  14    8   15 1
  15    8    9 2
  16    9   10 1
  17   10   11 1
  18   11   12 1
  19   11   15 2
  20   12   14 1
  21   12   13 1
  22   12   38 1
  23   13   14 1
  24   13   39 1
  25   13   40 1
  26   14   41 1
  27   14   42 1
  28   15   16 1
  29   16   17 1
  30   16   43 1
  31   16   44 1
  32   17   18 1
  33   18   23 ar
  34   18   19 ar
  35   19   20 ar
  36   19   45 1
  37   20   21 ar
  38   20   46 1
  39   21   22 ar
  40   21   24 1
  41   22   23 ar
  42   24   25 2
  43   24   26 am
  44   26   27 1
  45   26   47 1
  46   27   32 1
  47   27   28 1
  48   27   48 1
  49   28   29 1
  50   28   49 1
  51   28   50 1
  52   29   30 1
  53   29   51 1
  54   29   52 1
  55   30   31 1
  56   31   32 1
  57   31   53 1
  58   31   54 1
  59   32   55 1
  60   32   56 1

#	End of record

