#	Name: ASD00170159
#	Creating user name:	WinNT
#	Creation time:	15. 06. 2019 18:31

#	Modifying user name:	WinNT
#	Modification time:	15. 06. 2019 18:31

#	Program:	/corina/corina34_cracker 3.40 0067  02.08.2006

@<TRIPOS>MOLECULE
ASD00170159
  39   41    0    0    0
SMALL
NO_CHARGES


@<TRIPOS>ATOM
   1 C1            -0.8233     1.4550     0.9976 C.2     
   2 C2            -1.0190     0.1673     1.2350 C.2     
   3 C3            -1.3315    -0.5914     0.0423 C.2     
   4 C4            -1.3595     0.1886    -1.0905 C.2     
   5 S5            -1.0187     1.8144    -0.7085 S.3     
   6 N6            -1.6313    -0.2795    -2.3600 N.pl3   
   7 C7            -1.5893    -2.0314     0.0417 C.2     
   8 C8            -2.9736    -2.5345     0.1656 C.ar    
   9 O9            -0.6632    -2.8157    -0.0608 O.2     
  10 C10           -0.4845     2.4765     2.0526 C.3     
  11 C11           -0.9252    -0.4467     2.6080 C.3     
  12 C12           -3.2302    -3.9047     0.0737 C.ar    
  13 C13           -4.5198    -4.3722     0.1891 C.ar    
  14 C14           -5.5703    -3.4782     0.3978 C.ar    
  15 C15           -5.3152    -2.1097     0.4897 C.ar    
  16 C16           -4.0255    -1.6406     0.3803 C.ar    
  17 C17           -6.9591    -3.9828     0.5215 C.ar    
  18 C18           -8.0111    -3.0923     0.7301 C.ar    
  19 C19           -9.3017    -3.5677     0.8440 C.ar    
  20 C20           -9.5523    -4.9250     0.7520 C.ar    
  21 C21           -8.5122    -5.8134     0.5456 C.ar    
  22 C22           -7.2184    -5.3490     0.4239 C.ar    
  23 H23           -1.7412    -1.2311    -2.5128 H       
  24 H24           -1.7126     0.3430    -3.0994 H       
  25 H25            0.5982     2.5434     2.1591 H       
  26 H26           -0.8814     3.4481     1.7583 H       
  27 H27           -0.9253     2.1768     3.0033 H       
  28 H28           -1.9036    -0.4157     3.0875 H       
  29 H29           -0.5958    -1.4821     2.5213 H       
  30 H30           -0.2085     0.1136     3.2085 H       
  31 H31           -2.4171    -4.5969    -0.0882 H       
  32 H32           -4.7185    -5.4313     0.1178 H       
  33 H33           -6.1291    -1.4185     0.6513 H       
  34 H34           -3.8282    -0.5812     0.4519 H       
  35 H35           -7.8166    -2.0324     0.8027 H       
  36 H36          -10.1175    -2.8787     1.0056 H       
  37 H37          -10.5638    -5.2926     0.8421 H       
  38 H38           -8.7137    -6.8722     0.4753 H       
  39 H39           -6.4071    -6.0436     0.2628 H       
@<TRIPOS>BOND
   1    1    2 2
   2    1   10 1
   3    1    5 1
   4    2    3 1
   5    2   11 1
   6    3    4 2
   7    3    7 1
   8    4    5 1
   9    4    6 1
  10    6   23 1
  11    6   24 1
  12    7    8 1
  13    7    9 2
  14    8   12 ar
  15    8   16 ar
  16   10   25 1
  17   10   26 1
  18   10   27 1
  19   11   28 1
  20   11   29 1
  21   11   30 1
  22   12   13 ar
  23   12   31 1
  24   13   14 ar
  25   13   32 1
  26   14   15 ar
  27   14   17 1
  28   15   16 ar
  29   15   33 1
  30   16   34 1
  31   17   18 ar
  32   17   22 ar
  33   18   19 ar
  34   18   35 1
  35   19   20 ar
  36   19   36 1
  37   20   21 ar
  38   20   37 1
  39   21   22 ar
  40   21   38 1
  41   22   39 1

#	End of record

