#	Name: ASD05490138
#	Creating user name:	WinNT
#	Creation time:	15. 06. 2019 21:01

#	Modifying user name:	WinNT
#	Modification time:	15. 06. 2019 21:01

#	Program:	/corina/corina34_cracker 3.40 0067  02.08.2006

@<TRIPOS>MOLECULE
ASD05490138
  73   78    0    0    0
SMALL
NO_CHARGES


@<TRIPOS>ATOM
   1 O1            -2.2661     1.8197     0.0260 O.2     
   2 N2            -0.0178     1.4608     0.0101 N.am    
   3 O3             4.6646     2.9568    -0.0263 O.3     
   4 N4             2.8477     4.3950    -0.0006 N.ar    
   5 C5             1.5461     4.6473     0.0120 C.ar    
   6 C6             3.3220     3.1578    -0.0132 C.ar    
   7 C7             2.4690     2.0665    -0.0104 C.ar    
   8 C8             1.0961     2.2861     0.0039 C.ar    
   9 C9             0.6284     3.6025     0.0149 C.ar    
  10 N10            1.0961     5.9642     0.0229 N.pl3   
  11 C11           -1.1215     2.2329     0.0189 C.2     
  12 N12           -0.7654     3.5323     0.0275 N.am    
  13 C13            5.4948     4.1199    -0.0254 C.3     
  14 C14            6.9651     3.6970    -0.0411 C.3     
  15 C15            7.8540     4.9382    -0.1660 C.3     
  16 C16            9.3232     4.5128    -0.1016 C.3     
  17 C17            0.0021    -0.0041     0.0020 C.3     
  18 C18            0.0225    -0.5140     1.4200 C.ar    
  19 C19           -1.1674    -0.7635     2.0797 C.ar    
  20 C20           -1.1546    -1.2305     3.3784 C.ar    
  21 C21            0.0599    -1.4511     4.0247 C.ar    
  22 C22            1.2555    -1.1986     3.3552 C.ar    
  23 C23            1.2310    -0.7362     2.0550 C.ar    
  24 C24            0.0800    -1.9528     5.4211 C.ar    
  25 C25            1.2945    -2.1734     6.0675 C.ar    
  26 C26           -1.1157    -2.1995     6.0927 C.ar    
  27 C27           -1.0912    -2.6661     7.3914 C.ar    
  28 C28            0.1174    -2.8883     8.0264 C.ar    
  29 C29            1.3073    -2.6401     7.3663 C.ar    
  30 N30            0.1502    -4.8658     9.4383 N.3     
  31 C31            0.4091    -5.3981    10.7887 C.3     
  32 C32           -0.7690    -6.3282    11.1471 C.3     
  33 C33           -1.3431    -6.7157     9.7589 C.3     
  34 C34           -1.1406    -5.4045     8.9594 C.3     
  35 C35            0.1377    -3.3969     9.4449 C.3     
  36 O36            9.5625     3.8153     1.1225 O.3     
  37 C37            8.7935     2.6203     1.2732 C.3     
  38 C38            7.3031     2.9698     1.2640 C.3     
  39 H39            2.8639     1.0613    -0.0208 H       
  40 H40            1.7341     6.6948     0.0212 H       
  41 H41            0.1444     6.1515     0.0321 H       
  42 H42           -1.3729     4.2885     0.0348 H       
  43 H43            5.2800     4.7203    -0.9094 H       
  44 H44            5.2954     4.7079     0.8704 H       
  45 H45            7.1446     3.0333    -0.8869 H       
  46 H46            7.6590     5.4315    -1.1182 H       
  47 H47            7.6375     5.6251     0.6522 H       
  48 H48            9.5492     3.8580    -0.9432 H       
  49 H49            9.9598     5.3964    -0.1470 H       
  50 H50           -0.8878    -0.3767    -0.5053 H       
  51 H51            0.8920    -0.3525    -0.5222 H       
  52 H52           -2.1082    -0.5921     1.5778 H       
  53 H53           -2.0843    -1.4243     3.8928 H       
  54 H54            2.1997    -1.3679     3.8515 H       
  55 H55            2.1571    -0.5405     1.5350 H       
  56 H56            2.2241    -1.9799     5.5529 H       
  57 H57           -2.0599    -2.0256     5.5980 H       
  58 H58           -2.0173    -2.8576     7.9129 H       
  59 H59            2.2481    -2.8154     7.8668 H       
  60 H60            1.3415    -5.9625    10.7924 H       
  61 H61            0.4661    -4.5789    11.5055 H       
  62 H62           -0.4147    -7.2118    11.6780 H       
  63 H63           -1.5146    -5.7957    11.7375 H       
  64 H64           -0.7757    -7.5344     9.3164 H       
  65 H65           -2.4006    -6.9698     9.8309 H       
  66 H66           -1.9469    -4.7024     9.1715 H       
  67 H67           -1.0910    -5.6152     7.8911 H       
  68 H68            1.0303    -3.0282     9.9503 H       
  69 H69           -0.7494    -3.0434     9.9704 H       
  70 H70            9.0126     1.9408     0.4495 H       
  71 H71            9.0486     2.1406     2.2181 H       
  72 H72            7.0754     3.6169     2.1111 H       
  73 H73            6.7141     2.0553     1.3345 H       
@<TRIPOS>BOND
   1    1   11 2
   2    2   17 1
   3    2    8 1
   4    2   11 am
   5    3   13 1
   6    3    6 1
   7    4    5 ar
   8    4    6 ar
   9    5   10 1
  10    5    9 ar
  11    6    7 ar
  12    7    8 ar
  13    7   39 1
  14    8    9 ar
  15    9   12 1
  16   10   40 1
  17   10   41 1
  18   11   12 am
  19   12   42 1
  20   13   14 1
  21   13   43 1
  22   13   44 1
  23   14   15 1
  24   14   38 1
  25   14   45 1
  26   15   16 1
  27   15   46 1
  28   15   47 1
  29   16   36 1
  30   16   48 1
  31   16   49 1
  32   17   18 1
  33   17   50 1
  34   17   51 1
  35   18   19 ar
  36   18   23 ar
  37   19   20 ar
  38   19   52 1
  39   20   21 ar
  40   20   53 1
  41   21   22 ar
  42   21   24 1
  43   22   23 ar
  44   22   54 1
  45   23   55 1
  46   24   25 ar
  47   24   26 ar
  48   25   29 ar
  49   25   56 1
  50   26   27 ar
  51   26   57 1
  52   27   28 ar
  53   27   58 1
  54   28   29 ar
  55   28   35 1
  56   29   59 1
  57   30   31 1
  58   30   34 1
  59   30   35 1
  60   31   32 1
  61   31   60 1
  62   31   61 1
  63   32   33 1
  64   32   62 1
  65   32   63 1
  66   33   34 1
  67   33   64 1
  68   33   65 1
  69   34   66 1
  70   34   67 1
  71   35   68 1
  72   35   69 1
  73   36   37 1
  74   37   38 1
  75   37   70 1
  76   37   71 1
  77   38   72 1
  78   38   73 1

#	End of record

