#	Name: ASD05060090
#	Creating user name:	WinNT
#	Creation time:	15. 06. 2019 20:56

#	Modifying user name:	WinNT
#	Modification time:	15. 06. 2019 20:56

#	Program:	/corina/corina34_cracker 3.40 0067  02.08.2006

@<TRIPOS>MOLECULE
ASD05060090
  22   23    0    0    0
SMALL
NO_CHARGES


@<TRIPOS>ATOM
   1 O1            -0.0173     1.4248     0.0099 O.3     
   2 C2             0.0021    -0.0041     0.0020 C.3     
   3 C3            -1.4117    -0.5257     0.0127 C.ar    
   4 C4            -1.6458    -1.8924     0.0076 C.ar    
   5 C5            -0.8572    -4.1078     0.3602 C.3     
   6 O6            -0.5899    -2.7510    -0.0108 O.3     
   7 C7            -2.1255    -4.5654    -0.3728 C.3     
   8 O8            -3.2033    -3.7078     0.0182 O.3     
   9 C9            -2.9512    -2.3702     0.0185 C.ar    
  10 C10           -4.0121    -1.4776     0.0319 C.ar    
  11 C11           -3.7718    -0.1162     0.0361 C.ar    
  12 C12           -2.4739     0.3588     0.0333 C.ar    
  13 H13            0.8606     1.8301     0.0037 H       
  14 H14            0.5123    -0.3556    -0.8948 H       
  15 H15            0.5293    -0.3651     0.8851 H       
  16 H16           -0.0175    -4.7400     0.0716 H       
  17 H17           -1.0123    -4.1706     1.4373 H       
  18 H18           -1.9728    -4.4963    -1.4498 H       
  19 H19           -2.3571    -5.5948    -0.0991 H       
  20 H20           -5.0273    -1.8462     0.0387 H       
  21 H21           -4.5997     0.5773     0.0461 H       
  22 H22           -2.2893     1.4229     0.0427 H       
@<TRIPOS>BOND
   1    1    2 1
   2    1   13 1
   3    2    3 1
   4    2   14 1
   5    2   15 1
   6    3    4 ar
   7    3   12 ar
   8    4    6 1
   9    4    9 ar
  10    5    6 1
  11    5    7 1
  12    5   16 1
  13    5   17 1
  14    7    8 1
  15    7   18 1
  16    7   19 1
  17    8    9 1
  18    9   10 ar
  19   10   11 ar
  20   10   20 1
  21   11   12 ar
  22   11   21 1
  23   12   22 1

#	End of record

