#	Name: ASD03082236
#	Creating user name:	WinNT
#	Creation time:	15. 06. 2019 20:27

#	Modifying user name:	WinNT
#	Modification time:	15. 06. 2019 20:27

#	Program:	/corina/corina34_cracker 3.40 0067  02.08.2006

@<TRIPOS>MOLECULE
ASD03082236
  53   56    0    0    0
SMALL
NO_CHARGES


@<TRIPOS>ATOM
   1 N1             0.1705     1.4129    -0.5498 N.am    
   2 N2             0.0599     0.0215    -0.3938 N.2     
   3 C3             1.1307    -0.3784     0.2513 C.2     
   4 N4             1.9085     0.6757     0.5110 N.2     
   5 C5             1.3501     1.7692     0.0370 C.2     
   6 N6             1.4118    -1.6961     0.6091 N.pl3   
   7 C7             0.4625    -2.6991     0.3865 C.ar    
   8 C8             0.8686    -4.0173     0.2226 C.ar    
   9 C9            -0.0703    -5.0057     0.0030 C.ar    
  10 C10           -1.4160    -4.6835    -0.0544 C.ar    
  11 C11           -1.8231    -3.3703     0.1087 C.ar    
  12 C12           -0.8879    -2.3792     0.3348 C.ar    
  13 C13            0.3697    -6.4361    -0.1749 C.3     
  14 F14            1.7633    -6.5108    -0.0776 F       
  15 F15           -0.2105    -7.2297     0.8204 F       
  16 F16           -0.0352    -6.8955    -1.4328 F       
  17 C17            3.7461     4.6657     0.0643 C.ar    
  18 C18            3.2742     3.3722    -0.0235 C.ar    
  19 C19            1.9022     3.1390     0.1243 C.ar    
  20 C20            1.0673     4.2374     0.3565 C.ar    
  21 C21            1.6247     5.4978     0.4301 C.ar    
  22 N22            2.9238     5.6734     0.2845 N.ar    
  23 C23           -0.7088     2.2310    -1.1614 C.2     
  24 N24           -1.7986     1.7180    -1.7660 N.am    
  25 F25           -2.3328    -5.6521    -0.2703 F       
  26 C26           -2.7544     2.6073    -2.4307 C.3     
  27 O27           -0.5190     3.4312    -1.1676 O.2     
  28 C28           -4.1952     2.1136    -2.5766 C.3     
  29 C29           -3.2814     2.1798    -3.8020 C.3     
  30 C30            5.2220     4.9302    -0.0867 C.3     
  31 O31            5.6567     4.4845    -1.3730 O.3     
  32 C32            5.4878     6.4308     0.0496 C.3     
  33 C33            5.9893     4.1755     1.0007 C.3     
  34 H34            2.2658    -1.9175     1.0124 H       
  35 H35            1.9180    -4.2689     0.2666 H       
  36 H36           -2.8730    -3.1213     0.0632 H       
  37 H37           -1.2062    -1.3557     0.4667 H       
  38 H38            3.9532     2.5520    -0.2044 H       
  39 H39            0.0026     4.1010     0.4760 H       
  40 H40            0.9885     6.3520     0.6090 H       
  41 H41           -1.9502     0.7599    -1.7610 H       
  42 H42           -2.6024     3.6730    -2.2595 H       
  43 H43           -4.4319     1.1272    -2.1780 H       
  44 H44           -4.9911     2.8546    -2.5017 H       
  45 H45           -3.4761     2.9642    -4.5333 H       
  46 H46           -2.9170     1.2368    -4.2095 H       
  47 H47            6.5989     4.6237    -1.5398 H       
  48 H48            5.1563     6.7708     1.0308 H       
  49 H49            6.5553     6.6221    -0.0596 H       
  50 H50            4.9411     6.9685    -0.7251 H       
  51 H51            5.8000     3.1065     0.9035 H       
  52 H52            7.0568     4.3668     0.8914 H       
  53 H53            5.6578     4.5155     1.9818 H       
@<TRIPOS>BOND
   1    1    2 1
   2    1    5 1
   3    1   23 am
   4    2    3 2
   5    3    4 1
   6    3    6 1
   7    4    5 2
   8    5   19 1
   9    6    7 1
  10    6   34 1
  11    7    8 ar
  12    7   12 ar
  13    8    9 ar
  14    8   35 1
  15    9   10 ar
  16    9   13 1
  17   10   11 ar
  18   10   25 1
  19   11   12 ar
  20   11   36 1
  21   12   37 1
  22   13   14 1
  23   13   15 1
  24   13   16 1
  25   17   18 ar
  26   17   22 ar
  27   17   30 1
  28   18   19 ar
  29   18   38 1
  30   19   20 ar
  31   20   21 ar
  32   20   39 1
  33   21   22 ar
  34   21   40 1
  35   23   24 am
  36   23   27 2
  37   24   26 1
  38   24   41 1
  39   26   28 1
  40   26   29 1
  41   26   42 1
  42   28   29 1
  43   28   43 1
  44   28   44 1
  45   29   45 1
  46   29   46 1
  47   30   31 1
  48   30   32 1
  49   30   33 1
  50   31   47 1
  51   32   48 1
  52   32   49 1
  53   32   50 1
  54   33   51 1
  55   33   52 1
  56   33   53 1

#	End of record

