#	Name: ASD01120145
#	Creating user name:	WinNT
#	Creation time:	15. 06. 2019 18:59

#	Modifying user name:	WinNT
#	Modification time:	15. 06. 2019 18:59

#	Program:	/corina/corina34_cracker 3.40 0067  02.08.2006

@<TRIPOS>MOLECULE
ASD01120145
  38   40    0    0    0
SMALL
NO_CHARGES


@<TRIPOS>ATOM
   1 C1            -0.8576     1.4106     0.9430 C.ar    
   2 C2            -0.8591     0.0164     1.0212 C.ar    
   3 C3            -2.0266    -0.6792     1.1175 C.ar    
   4 C4            -3.2473     0.0084     1.1389 C.ar    
   5 C5            -3.2520     1.4226     1.0600 C.ar    
   6 C6            -2.0413     2.1167     0.9669 C.ar    
   7 N7            -4.4214    -0.6351     1.2322 N.ar    
   8 C8            -5.5481     0.0357     1.2495 C.ar    
   9 N9            -5.6018     1.3565     1.1782 N.ar    
  10 C10           -4.5013     2.0902     1.0835 C.ar    
  11 C11           -6.7710     3.5852     1.9965 C.ar    
  12 C12           -5.8022     4.1126     1.1523 C.ar    
  13 C13           -6.0593     5.2837     0.4509 C.ar    
  14 C14           -7.2773     5.9200     0.5949 C.ar    
  15 C15           -8.2401     5.3915     1.4369 C.ar    
  16 C16           -7.9867     4.2261     2.1362 C.ar    
  17 O17            0.3227     2.0782     0.8480 O.3     
  18 C18            0.2544     3.4929     0.6589 C.3     
  19 N19           -4.5710     3.4665     1.0094 N.pl3   
  20 Br20          -7.6287     7.5147    -0.3588 Br      
  21 C21            0.1001     4.1821     2.0161 C.3     
  22 C22            1.5377     3.9796    -0.0173 C.3     
  23 H23            0.0790    -0.5185     1.0047 H       
  24 H24           -2.0113    -1.7575     1.1769 H       
  25 H25           -2.0343     3.1950     0.9065 H       
  26 H26           -6.4744    -0.5145     1.3251 H       
  27 H27           -6.5757     2.6725     2.5397 H       
  28 H28           -5.3079     5.6965    -0.2060 H       
  29 H29           -9.1913     5.8907     1.5483 H       
  30 H30           -8.7403     3.8160     2.7922 H       
  31 H31           -0.6021     3.7344     0.0294 H       
  32 H32           -3.7656     3.9855     0.8581 H       
  33 H33            0.9566     3.9406     2.6456 H       
  34 H34            0.0480     5.2613     1.8718 H       
  35 H35           -0.8141     3.8354     2.4978 H       
  36 H36            1.6475     3.4886    -0.9843 H       
  37 H37            1.4856     5.0587    -0.1616 H       
  38 H38            2.3941     3.7381     0.6122 H       
@<TRIPOS>BOND
   1    1    2 ar
   2    1   17 1
   3    1    6 ar
   4    2    3 ar
   5    2   23 1
   6    3    4 ar
   7    3   24 1
   8    4    5 ar
   9    4    7 ar
  10    5    6 ar
  11    5   10 ar
  12    6   25 1
  13    7    8 ar
  14    8    9 ar
  15    8   26 1
  16    9   10 ar
  17   10   19 1
  18   11   12 ar
  19   11   16 ar
  20   11   27 1
  21   12   13 ar
  22   12   19 1
  23   13   14 ar
  24   13   28 1
  25   14   15 ar
  26   14   20 1
  27   15   16 ar
  28   15   29 1
  29   16   30 1
  30   17   18 1
  31   18   21 1
  32   18   22 1
  33   18   31 1
  34   19   32 1
  35   21   33 1
  36   21   34 1
  37   21   35 1
  38   22   36 1
  39   22   37 1
  40   22   38 1

#	End of record

