#	Name: ASD00310131
#	Creating user name:	WinNT
#	Creation time:	15. 06. 2019 18:33

#	Modifying user name:	WinNT
#	Modification time:	15. 06. 2019 18:33

#	Program:	/corina/corina34_cracker 3.40 0067  02.08.2006

@<TRIPOS>MOLECULE
ASD00310131
  42   45    0    0    0
SMALL
NO_CHARGES


@<TRIPOS>ATOM
   1 N1            -0.0163     1.3500     0.0059 N.pl3   
   2 C2             0.0019    -0.0038    -0.0191 C.2     
   3 C3             1.2918    -0.4480    -0.0422 C.2     
   4 C4             2.1473     0.7541    -0.0301 C.ar    
   5 C5             3.5228     0.9585    -0.0422 C.ar    
   6 C6             4.0239     2.2538    -0.0243 C.ar    
   7 C7             3.1467     3.3434     0.0058 C.ar    
   8 C8             1.7851     3.1434     0.0179 C.ar    
   9 C9             1.2694     1.8502     0.0002 C.ar    
  10 C10            1.7397    -1.8449    -0.0725 C.2     
  11 O11            2.9281    -2.1021    -0.0906 O.2     
  12 O12            0.8336    -2.8434    -0.0804 O.3     
  13 Cl13           3.7804     4.9595     0.0287 Cl      
  14 C14            5.4899     2.4821    -0.0365 C.ar    
  15 C15            6.0514     3.3719    -0.9502 C.ar    
  16 C16            7.4157     3.5803    -0.9572 C.ar    
  17 C17            8.2253     2.9080    -0.0595 C.ar    
  18 C18            7.6732     2.0236     0.8496 C.ar    
  19 C19            6.3096     1.8118     0.8693 C.ar    
  20 C20            9.7144     3.1394    -0.0723 C.3     
  21 C21           10.1087     4.6204     0.0542 C.3     
  22 C22           11.2476     4.1569     0.9777 C.3     
  23 C23           10.3828     2.9258     1.2960 C.3     
  24 C24           10.4080     2.4245    -1.2032 C.2     
  25 O25           11.1684     3.0275    -1.9230 O.2     
  26 O26           10.1810     1.1180    -1.4109 O.3     
  27 H27           -0.8206     1.8922     0.0214 H       
  28 H28           -0.8732    -0.6369    -0.0203 H       
  29 H29            4.1972     0.1153    -0.0651 H       
  30 H30            1.1158     3.9907     0.0412 H       
  31 H31            1.1765    -3.7473    -0.1006 H       
  32 H32            5.4203     3.8971    -1.6518 H       
  33 H33            7.8521     4.2695    -1.6651 H       
  34 H34            8.3100     1.5013     1.5483 H       
  35 H35            5.8791     1.1245     1.5825 H       
  36 H36           10.4562     5.0611    -0.8802 H       
  37 H37            9.3589     5.2304     0.5580 H       
  38 H38           12.1696     3.9177     0.4478 H       
  39 H39           11.4084     4.8110     1.8348 H       
  40 H40            9.7079     3.0725     2.1393 H       
  41 H41           10.9516     1.9985     1.3641 H       
  42 H42           10.6488     0.7029    -2.1484 H       
@<TRIPOS>BOND
   1    1    2 1
   2    1    9 1
   3    1   27 1
   4    2    3 2
   5    2   28 1
   6    3    4 1
   7    3   10 1
   8    4    5 ar
   9    4    9 ar
  10    5    6 ar
  11    5   29 1
  12    6    7 ar
  13    6   14 1
  14    7    8 ar
  15    7   13 1
  16    8    9 ar
  17    8   30 1
  18   10   11 2
  19   10   12 1
  20   12   31 1
  21   14   15 ar
  22   14   19 ar
  23   15   16 ar
  24   15   32 1
  25   16   17 ar
  26   16   33 1
  27   17   18 ar
  28   17   20 1
  29   18   19 ar
  30   18   34 1
  31   19   35 1
  32   20   21 1
  33   20   23 1
  34   20   24 1
  35   21   22 1
  36   21   36 1
  37   21   37 1
  38   22   23 1
  39   22   38 1
  40   22   39 1
  41   23   40 1
  42   23   41 1
  43   24   25 2
  44   24   26 1
  45   26   42 1

#	End of record

