#	Name: ASD01914853
#	Creating user name:	WinNT
#	Creation time:	15. 06. 2019 20:04

#	Modifying user name:	WinNT
#	Modification time:	15. 06. 2019 20:04

#	Program:	/corina/corina34_cracker 3.40 0067  02.08.2006

@<TRIPOS>MOLECULE
ASD01914853
  63   67    0    0    0
SMALL
NO_CHARGES


@<TRIPOS>ATOM
   1 N1             0.0271     1.3906    -0.1032 N.2     
   2 C2            -0.0388     0.0591     0.0783 C.2     
   3 C3             1.2323    -0.4203     0.1480 C.2     
   4 N4             2.0694     0.6502     0.0048 N.pl3   
   5 C5             1.2869     1.7578    -0.1490 C.2     
   6 C6            -1.2809    -0.7457     0.1838 C.ar    
   7 C7            -2.5248    -0.1254     0.0945 C.ar    
   8 C8            -1.2062    -2.1252     0.3670 C.ar    
   9 C9            -2.3633    -2.8719     0.4650 C.ar    
  10 C10           -3.5974    -2.2552     0.3820 C.ar    
  11 C11           -3.6805    -0.8821     0.1939 C.ar    
  12 C12            1.7764     3.1411    -0.3361 C.ar    
  13 C13            3.0847     3.4749     0.0159 C.ar    
  14 C14            3.5351     4.7669    -0.1611 C.ar    
  15 C15            2.6925     5.7307    -0.6857 C.ar    
  16 C16            1.3941     5.4062    -1.0362 C.ar    
  17 C17            0.9335     4.1162    -0.8705 C.ar    
  18 C18            3.5340     0.6156     0.0152 C.3     
  19 C19            4.0320     0.8483     1.4183 C.2     
  20 O20            3.2414     1.0257     2.3208 O.2     
  21 N21            5.3560     0.8594     1.6703 N.am    
  22 C22            5.8633     1.0848     3.0324 C.3     
  23 C23            6.3316     0.6404     0.5917 C.3     
  24 C24            7.3065    -0.4566     1.0326 C.3     
  25 N25            7.8882    -0.0968     2.3327 N.3     
  26 C26            6.8576    -0.0306     3.3722 C.3     
  27 C27            8.8926    -0.9813     2.6855 C.ar    
  28 N28            9.9109    -1.1668     1.8585 N.ar    
  29 N29            8.8156    -1.6182     3.8448 N.ar    
  30 C30            9.7587    -2.4697     4.2124 C.ar    
  31 C31           10.8357    -2.6914     3.3685 C.ar    
  32 C32           10.8874    -2.0046     2.1657 C.ar    
  33 O33           -4.8961    -0.2797     0.1132 O.3     
  34 C34           -6.0457    -1.1203     0.2303 C.3     
  35 C35           -7.3127    -0.2703     0.1158 C.3     
  36 H36            1.5242    -1.4505     0.2895 H       
  37 H37           -2.5879     0.9428    -0.0515 H       
  38 H38           -0.2434    -2.6101     0.4319 H       
  39 H39           -2.3040    -3.9410     0.6066 H       
  40 H40           -4.4997    -2.8437     0.4589 H       
  41 H41            3.7432     2.7236     0.4262 H       
  42 H42            4.5475     5.0266     0.1109 H       
  43 H43            3.0498     6.7408    -0.8219 H       
  44 H44            0.7411     6.1632    -1.4449 H       
  45 H45           -0.0802     3.8641    -1.1448 H       
  46 H46            3.8769    -0.3580    -0.3352 H       
  47 H47            3.9205     1.3949    -0.6415 H       
  48 H48            6.3660     2.0507     3.0807 H       
  49 H49            5.0344     1.0645     3.7399 H       
  50 H50            5.8121     0.3264    -0.3136 H       
  51 H51            6.8801     1.5628     0.4013 H       
  52 H52            6.7730    -1.4029     1.1222 H       
  53 H53            8.1014    -0.5554     0.2933 H       
  54 H54            7.3245     0.1797     4.3344 H       
  55 H55            6.3310    -0.9835     3.4235 H       
  56 H56            9.6906    -2.9856     5.1587 H       
  57 H57           11.6198    -3.3810     3.6442 H       
  58 H58           11.7129    -2.1547     1.4857 H       
  59 H59           -6.0343    -1.8645    -0.5660 H       
  60 H60           -6.0315    -1.6227     1.1975 H       
  61 H61           -8.1897    -0.9115     0.2051 H       
  62 H62           -7.3242     0.4739     0.9121 H       
  63 H63           -7.3270     0.2321    -0.8514 H       
@<TRIPOS>BOND
   1    1    2 1
   2    1    5 2
   3    2    3 2
   4    2    6 1
   5    3    4 1
   6    3   36 1
   7    4    5 1
   8    4   18 1
   9    5   12 1
  10    6    7 ar
  11    6    8 ar
  12    7   11 ar
  13    7   37 1
  14    8    9 ar
  15    8   38 1
  16    9   10 ar
  17    9   39 1
  18   10   11 ar
  19   10   40 1
  20   11   33 1
  21   12   13 ar
  22   12   17 ar
  23   13   14 ar
  24   13   41 1
  25   14   15 ar
  26   14   42 1
  27   15   16 ar
  28   15   43 1
  29   16   17 ar
  30   16   44 1
  31   17   45 1
  32   18   19 1
  33   18   46 1
  34   18   47 1
  35   19   20 2
  36   19   21 am
  37   21   22 1
  38   21   23 1
  39   22   26 1
  40   22   48 1
  41   22   49 1
  42   23   24 1
  43   23   50 1
  44   23   51 1
  45   24   25 1
  46   24   52 1
  47   24   53 1
  48   25   26 1
  49   25   27 1
  50   26   54 1
  51   26   55 1
  52   27   28 ar
  53   27   29 ar
  54   28   32 ar
  55   29   30 ar
  56   30   31 ar
  57   30   56 1
  58   31   32 ar
  59   31   57 1
  60   32   58 1
  61   33   34 1
  62   34   35 1
  63   34   59 1
  64   34   60 1
  65   35   61 1
  66   35   62 1
  67   35   63 1

#	End of record

