#	Name: ASD01941077
#	Creating user name:	WinNT
#	Creation time:	15. 06. 2019 20:13

#	Modifying user name:	WinNT
#	Modification time:	15. 06. 2019 20:13

#	Program:	/corina/corina34_cracker 3.40 0067  02.08.2006

@<TRIPOS>MOLECULE
ASD01941077
  42   43    0    0    0
SMALL
NO_CHARGES


@<TRIPOS>ATOM
   1 C1             0.0095     1.3431     0.0340 C.ar    
   2 C2            -0.0331     0.8373     1.3277 C.ar    
   3 C3            -1.0856     0.0286     1.7204 C.ar    
   4 C4            -2.1028    -0.2820     0.8277 C.ar    
   5 C5            -2.0751     0.2113    -0.4574 C.ar    
   6 C6            -1.0219     1.0341    -0.8673 C.ar    
   7 F7            -1.1232    -0.4615     2.9788 F       
   8 F8             0.9530     1.1345     2.2020 F       
   9 C9            -0.9883     1.5645    -2.2413 C.2     
  10 O10           -0.1263     2.3589    -2.5656 O.2     
  11 N11           -1.9128     1.1695    -3.1390 N.am    
  12 N12            1.0654     2.1558    -0.3642 N.pl3   
  13 C13            2.2552     1.5816    -0.8240 C.ar    
  14 C14            3.3535     2.3865    -1.1077 C.ar    
  15 C15            4.5278     1.8149    -1.5621 C.ar    
  16 C16            4.6097     0.4447    -1.7344 C.ar    
  17 C17            3.5183    -0.3575    -1.4532 C.ar    
  18 C18            2.3443     0.2063    -0.9927 C.ar    
  19 F19            3.2730     3.7247    -0.9402 F       
  20 I20            6.3904    -0.4173    -2.4236 I       
  21 C21           -1.8793     1.6970    -4.5053 C.3     
  22 C22           -3.0292     1.0926    -5.3136 C.3     
  23 C23           -2.9943     1.6435    -6.7406 C.3     
  24 C24           -4.0653     0.9470    -7.5825 C.3     
  25 O25           -3.9565     1.3759    -8.9413 O.3     
  26 O26           -3.2485     3.0495    -6.7147 O.3     
  27 H27           -2.9199    -0.9140     1.1430 H       
  28 H28           -2.8691    -0.0338    -1.1472 H       
  29 H29           -2.6003     0.5360    -2.8804 H       
  30 H30            0.9768     3.1209    -0.3231 H       
  31 H31            5.3814     2.4385    -1.7828 H       
  32 H32            3.5859    -1.4267    -1.5893 H       
  33 H33            1.4932    -0.4214    -0.7733 H       
  34 H34           -1.9847     2.7816    -4.4787 H       
  35 H35           -0.9299     1.4355    -4.9726 H       
  36 H36           -2.9239     0.0080    -5.3402 H       
  37 H37           -3.9786     1.3541    -4.8463 H       
  38 H38           -2.0126     1.4597    -7.1771 H       
  39 H39           -3.9237    -0.1325    -7.5298 H       
  40 H40           -5.0527     1.2032    -7.1986 H       
  41 H41           -4.6062     0.9737    -9.5339 H       
  42 H42           -4.1068     3.2871    -6.3380 H       
@<TRIPOS>BOND
   1    1    2 ar
   2    1   12 1
   3    1    6 ar
   4    2    3 ar
   5    2    8 1
   6    3    4 ar
   7    3    7 1
   8    4    5 ar
   9    4   27 1
  10    5    6 ar
  11    5   28 1
  12    6    9 1
  13    9   10 2
  14    9   11 am
  15   11   21 1
  16   11   29 1
  17   12   13 1
  18   12   30 1
  19   13   14 ar
  20   13   18 ar
  21   14   15 ar
  22   14   19 1
  23   15   16 ar
  24   15   31 1
  25   16   17 ar
  26   16   20 1
  27   17   18 ar
  28   17   32 1
  29   18   33 1
  30   21   22 1
  31   21   34 1
  32   21   35 1
  33   22   23 1
  34   22   36 1
  35   22   37 1
  36   23   24 1
  37   23   26 1
  38   23   38 1
  39   24   25 1
  40   24   39 1
  41   24   40 1
  42   25   41 1
  43   26   42 1

#	End of record

