#	Name: ASD06340019
#	Creating user name:	WinNT
#	Creation time:	15. 06. 2019 21:05

#	Modifying user name:	WinNT
#	Modification time:	15. 06. 2019 21:05

#	Program:	/corina/corina34_cracker 3.40 0067  02.08.2006

@<TRIPOS>MOLECULE
ASD06340019
  26   27    0    0    0
SMALL
NO_CHARGES


@<TRIPOS>ATOM
   1 C1            -0.0162     1.3444     0.0094 C.2     
   2 N2             0.0021    -0.0041     0.0020 N.am    
   3 N3             1.3491    -0.3972    -0.0130 N.am    
   4 C4             2.0900     0.7297    -0.0140 C.2     
   5 N5             1.2553     1.7854    -0.0003 N.am    
   6 C6             1.8550    -1.7721    -0.0247 C.3     
   7 O7            -1.0112     2.0424     0.0182 O.2     
   8 C8             1.6658     3.1917     0.0026 C.3     
   9 C9             2.0416    -2.2508     1.3920 C.ar    
  10 C10            1.0038    -2.8839     2.0500 C.ar    
  11 C11            1.1749    -3.3230     3.3495 C.ar    
  12 C12            2.3841    -3.1295     3.9908 C.ar    
  13 C13            3.4222    -2.4972     3.3325 C.ar    
  14 C14            3.2525    -2.0620     2.0315 C.ar    
  15 O15            3.3042     0.7828    -0.0253 O.2     
  16 H16           -0.7700    -0.5913     0.0065 H       
  17 H17            1.1405    -2.4177    -0.5353 H       
  18 H18            2.8109    -1.8030    -0.5476 H       
  19 H19            0.7812     3.8284     0.0143 H       
  20 H20            2.2695     3.3922     0.8877 H       
  21 H21            2.2522     3.4009    -0.8922 H       
  22 H22            0.0591    -3.0351     1.5489 H       
  23 H23            0.3638    -3.8169     3.8638 H       
  24 H24            2.5176    -3.4719     5.0064 H       
  25 H25            4.3668    -2.3457     3.8337 H       
  26 H26            4.0636    -1.5680     1.5172 H       
@<TRIPOS>BOND
   1    1    2 am
   2    1    5 am
   3    1    7 2
   4    2    3 1
   5    2   16 1
   6    3    4 am
   7    3    6 1
   8    4    5 am
   9    4   15 2
  10    5    8 1
  11    6    9 1
  12    6   17 1
  13    6   18 1
  14    8   19 1
  15    8   20 1
  16    8   21 1
  17    9   10 ar
  18    9   14 ar
  19   10   11 ar
  20   10   22 1
  21   11   12 ar
  22   11   23 1
  23   12   13 ar
  24   12   24 1
  25   13   14 ar
  26   13   25 1
  27   14   26 1

#	End of record

