#	Name: ASD01913415
#	Creating user name:	WinNT
#	Creation time:	15. 06. 2019 20:01

#	Modifying user name:	WinNT
#	Modification time:	15. 06. 2019 20:01

#	Program:	/corina/corina34_cracker 3.40 0067  02.08.2006

@<TRIPOS>MOLECULE
ASD01913415
  41   43    0    0    0
SMALL
NO_CHARGES


@<TRIPOS>ATOM
   1 C1            -1.9621    -0.7281    -2.1791 C.ar    
   2 C2            -1.4559    -0.0510    -1.0721 C.ar    
   3 C3            -1.4803     1.3416    -1.0832 C.ar    
   4 N4            -1.9797     1.9659    -2.1368 N.ar    
   5 C5            -2.4493     1.2885    -3.1653 C.ar    
   6 N6            -2.4441    -0.0291    -3.1932 N.ar    
   7 C7            -1.0323    -2.1440     0.0677 C.ar    
   8 C8             0.1187    -2.9207     0.0151 C.ar    
   9 C9             0.0302    -4.3014     0.0667 C.ar    
  10 C10           -1.2039    -4.9151     0.1708 C.ar    
  11 C11           -2.3652    -4.1419     0.2242 C.ar    
  12 C12           -2.2750    -2.7512     0.1722 C.ar    
  13 C13           -3.6865    -4.7955     0.3351 C.2     
  14 N14           -3.7714    -6.1397     0.3848 N.am    
  15 C15           -5.0043    -6.7524     0.5982 C.ar    
  16 O16           -4.6964    -4.1207     0.3815 O.2     
  17 N17           -0.9375    -0.7506     0.0212 N.pl3   
  18 F18            1.1530    -5.0509     0.0146 F       
  19 N19           -6.1033    -6.0162     0.6436 N.ar    
  20 C20           -7.2903    -6.5564     0.8434 C.ar    
  21 C21           -7.4283    -7.9196     1.0135 C.ar    
  22 C22           -6.2997    -8.7274     0.9727 C.ar    
  23 C23           -5.0696    -8.1325     0.7558 C.ar    
  24 C24           -6.4129   -10.2191     1.1548 C.3     
  25 C25           -0.2947    -0.0231     1.1183 C.3     
  26 H26           -1.9570    -1.8076    -2.2108 H       
  27 H27           -1.0975     1.9032    -0.2439 H       
  28 H28           -2.8502     1.8291    -4.0099 H       
  29 H29            1.0853    -2.4459    -0.0666 H       
  30 H30           -1.2699    -5.9924     0.2104 H       
  31 H31           -3.1704    -2.1486     0.2135 H       
  32 H32           -2.9741    -6.6805     0.2719 H       
  33 H33           -8.1653    -5.9241     0.8747 H       
  34 H34           -8.4039    -8.3531     1.1769 H       
  35 H35           -4.1714    -8.7309     0.7178 H       
  36 H36           -6.5590   -10.6936     0.1845 H       
  37 H37           -5.4992   -10.5997     1.6115 H       
  38 H38           -7.2622   -10.4429     1.8003 H       
  39 H39           -1.0411     0.2350     1.8696 H       
  40 H40            0.4733    -0.6511     1.5699 H       
  41 H41            0.1619     0.8880     0.7318 H       
@<TRIPOS>BOND
   1    1    2 ar
   2    1    6 ar
   3    1   26 1
   4    2    3 ar
   5    2   17 1
   6    3    4 ar
   7    3   27 1
   8    4    5 ar
   9    5    6 ar
  10    5   28 1
  11    7    8 ar
  12    7   12 ar
  13    7   17 1
  14    8    9 ar
  15    8   29 1
  16    9   10 ar
  17    9   18 1
  18   10   11 ar
  19   10   30 1
  20   11   12 ar
  21   11   13 1
  22   12   31 1
  23   13   14 am
  24   13   16 2
  25   14   15 1
  26   14   32 1
  27   15   19 ar
  28   15   23 ar
  29   17   25 1
  30   19   20 ar
  31   20   21 ar
  32   20   33 1
  33   21   22 ar
  34   21   34 1
  35   22   23 ar
  36   22   24 1
  37   23   35 1
  38   24   36 1
  39   24   37 1
  40   24   38 1
  41   25   39 1
  42   25   40 1
  43   25   41 1

#	End of record

