#	Name: ASD02770024
#	Creating user name:	WinNT
#	Creation time:	15. 06. 2019 20:26

#	Modifying user name:	WinNT
#	Modification time:	15. 06. 2019 20:26

#	Program:	/corina/corina34_cracker 3.40 0067  02.08.2006

@<TRIPOS>MOLECULE
ASD02770024
  47   47    0    0    0
SMALL
NO_CHARGES


@<TRIPOS>ATOM
   1 C1            -0.0184     1.5028     0.0103 C.2     
   2 C2             0.0021    -0.0041     0.0020 C.3     
   3 O3             1.0236     2.1234     0.0037 O.2     
   4 N4            -1.1946     2.1607     0.0195 N.am    
   5 O5             1.3556    -0.4620    -0.0134 O.3     
   6 C6             1.5521    -1.8079    -0.0225 C.ar    
   7 C7             1.6410    -2.4891    -1.2270 C.ar    
   8 C8             1.8408    -3.8579    -1.2339 C.ar    
   9 C9             1.9517    -4.5492    -0.0417 C.ar    
  10 C10            1.8635    -3.8757     1.1622 C.ar    
  11 C11            1.6700    -2.5034     1.1765 C.ar    
  12 O12            1.5895    -1.8389     2.3603 O.3     
  13 C13            1.7194    -2.6175     3.5515 C.3     
  14 C14            2.1688    -6.0404    -0.0547 C.3     
  15 N15            3.6099    -6.3253    -0.0707 N.3     
  16 C16            3.8602    -7.7727    -0.0837 C.3     
  17 C17            5.2294    -8.0479    -0.7086 C.3     
  18 C18            5.4902    -9.5554    -0.7222 C.3     
  19 C19            5.4670   -10.0899     0.7112 C.3     
  20 C20            4.0978    -9.8148     1.3361 C.3     
  21 C21            3.8371    -8.3072     1.3497 C.3     
  22 Cl22           1.5011    -1.6245    -2.7258 Cl      
  23 H23           -0.4983    -0.3791     0.8948 H       
  24 H24           -0.5153    -0.3696    -0.8850 H       
  25 H25           -2.0280     1.6644     0.0207 H       
  26 H26           -1.2077     3.1306     0.0248 H       
  27 H27            1.9100    -4.3877    -2.1725 H       
  28 H28            1.9497    -4.4184     2.0920 H       
  29 H29            0.9298    -3.3683     3.5827 H       
  30 H30            2.6910    -3.1117     3.5584 H       
  31 H31            1.6366    -1.9667     4.4219 H       
  32 H32            1.7213    -6.4805     0.8364 H       
  33 H33            1.7042    -6.4674    -0.9434 H       
  34 H34            4.0591    -5.8736    -0.8531 H       
  35 H35            3.0870    -8.2699    -0.6694 H       
  36 H36            5.2459    -7.6671    -1.7298 H       
  37 H37            6.0026    -7.5507    -0.1229 H       
  38 H38            4.7169   -10.0526    -1.3079 H       
  39 H39            6.4656    -9.7515    -1.1673 H       
  40 H40            5.6528   -11.1640     0.7016 H       
  41 H41            6.2402    -9.5927     1.2969 H       
  42 H42            3.3246   -10.3120     0.7504 H       
  43 H43            4.0813   -10.1956     2.3573 H       
  44 H44            4.6103    -7.8100     1.9354 H       
  45 H45            2.8616    -8.1112     1.7949 H       
  46 Cl46          11.4656     8.1306     9.4219 Cl      
  47 H47           11.4656     9.5006     9.4219 H       
@<TRIPOS>BOND
   1    1    2 1
   2    1    3 2
   3    1    4 am
   4    2    5 1
   5    2   23 1
   6    2   24 1
   7    4   25 1
   8    4   26 1
   9    5    6 1
  10    6    7 ar
  11    6   11 ar
  12    7    8 ar
  13    7   22 1
  14    8    9 ar
  15    8   27 1
  16    9   10 ar
  17    9   14 1
  18   10   11 ar
  19   10   28 1
  20   11   12 1
  21   12   13 1
  22   13   29 1
  23   13   30 1
  24   13   31 1
  25   14   15 1
  26   14   32 1
  27   14   33 1
  28   15   16 1
  29   15   34 1
  30   16   17 1
  31   16   21 1
  32   16   35 1
  33   17   18 1
  34   17   36 1
  35   17   37 1
  36   18   19 1
  37   18   38 1
  38   18   39 1
  39   19   20 1
  40   19   40 1
  41   19   41 1
  42   20   21 1
  43   20   42 1
  44   20   43 1
  45   21   44 1
  46   21   45 1
  47   46   47 1

#	End of record

