#	Name: ASD00310128
#	Creating user name:	WinNT
#	Creation time:	15. 06. 2019 18:33

#	Modifying user name:	WinNT
#	Modification time:	15. 06. 2019 18:33

#	Program:	/corina/corina34_cracker 3.40 0067  02.08.2006

@<TRIPOS>MOLECULE
ASD00310128
  40   43    0    0    0
SMALL
NO_CHARGES


@<TRIPOS>ATOM
   1 N1             0.2575     4.2066    -2.7787 N.pl3   
   2 C2            -0.0463     2.9161    -3.0548 C.2     
   3 C3             1.0460     2.1278    -2.8373 C.2     
   4 C4             2.1249     3.0258    -2.3831 C.ar    
   5 C5             3.4503     2.8289    -2.0108 C.ar    
   6 C6             4.2223     3.9163    -1.6223 C.ar    
   7 C7             3.6661     5.2000    -1.6071 C.ar    
   8 C8             2.3548     5.3971    -1.9751 C.ar    
   9 C9             1.5696     4.3159    -2.3667 C.ar    
  10 C10            1.1307     0.6742    -3.0188 C.2     
  11 O11            2.1728     0.0922    -2.7866 O.2     
  12 O12            0.0529    -0.0162    -3.4430 O.3     
  13 C13            5.6372     3.7163    -1.2229 C.ar    
  14 C14            6.6397     4.5073    -1.7805 C.ar    
  15 C15            7.9541     4.3172    -1.4049 C.ar    
  16 C16            8.2771     3.3434    -0.4772 C.ar    
  17 C17            7.2860     2.5553     0.0794 C.ar    
  18 C18            5.9677     2.7405    -0.2845 C.ar    
  19 C19            9.7143     3.1399    -0.0719 C.3     
  20 C20           10.4510     4.3326     0.5411 C.3     
  21 C21           10.0352     3.1542     1.4240 C.3     
  22 C22           10.5221     2.1906    -0.9591 C.3     
  23 O23            9.9858     0.8701    -0.8559 O.3     
  24 Cl24           4.6372     6.5541    -1.1198 Cl      
  25 H25           -0.3595     4.9502    -2.8629 H       
  26 H26           -1.0086     2.5638    -3.3958 H       
  27 H27            3.8765     1.8367    -2.0233 H       
  28 H28            1.9341     6.3917    -1.9602 H       
  29 H29            0.1571    -0.9719    -3.5477 H       
  30 H30            6.3887     5.2675    -2.5054 H       
  31 H31            8.7320     4.9298    -1.8365 H       
  32 H32            7.5439     1.7962     0.8031 H       
  33 H33            5.1941     2.1277     0.1541 H       
  34 H34           11.5113     4.4407     0.3126 H       
  35 H35            9.8963     5.2643     0.6512 H       
  36 H36            9.2068     3.3108     2.1150 H       
  37 H37           10.8219     2.4871     1.7764 H       
  38 H38           10.4662     2.5255    -1.9949 H       
  39 H39           11.5625     2.1867    -0.6342 H       
  40 H40           10.4502     0.2139    -1.3934 H       
@<TRIPOS>BOND
   1    1    2 1
   2    1    9 1
   3    1   25 1
   4    2    3 2
   5    2   26 1
   6    3    4 1
   7    3   10 1
   8    4    5 ar
   9    4    9 ar
  10    5    6 ar
  11    5   27 1
  12    6    7 ar
  13    6   13 1
  14    7    8 ar
  15    7   24 1
  16    8    9 ar
  17    8   28 1
  18   10   11 2
  19   10   12 1
  20   12   29 1
  21   13   14 ar
  22   13   18 ar
  23   14   15 ar
  24   14   30 1
  25   15   16 ar
  26   15   31 1
  27   16   17 ar
  28   16   19 1
  29   17   18 ar
  30   17   32 1
  31   18   33 1
  32   19   20 1
  33   19   21 1
  34   19   22 1
  35   20   21 1
  36   20   34 1
  37   20   35 1
  38   21   36 1
  39   21   37 1
  40   22   23 1
  41   22   38 1
  42   22   39 1
  43   23   40 1

#	End of record

