#	Name: ASD00841921
#	Creating user name:	WinNT
#	Creation time:	15. 06. 2019 18:43

#	Modifying user name:	WinNT
#	Modification time:	15. 06. 2019 18:43

#	Program:	/corina/corina34_cracker 3.40 0067  02.08.2006

@<TRIPOS>MOLECULE
ASD00841921
  98  103    0    0    0
SMALL
NO_CHARGES


@<TRIPOS>ATOM
   1 C1             1.0069     1.5579    -0.3813 C.ar    
   2 C2             1.3137     0.2278    -0.6282 C.ar    
   3 C3             1.2442    -0.7003     0.4009 C.ar    
   4 C4             0.8699    -0.2980     1.6681 C.ar    
   5 C5             0.5641     1.0285     1.9115 C.ar    
   6 C6             0.6330     1.9552     0.8880 C.ar    
   7 C7             1.5764    -2.1462     0.1360 C.3     
   8 C8             1.3074    -2.9862     1.3664 C.2     
   9 C9             0.7732    -2.6696    -1.0564 C.3     
  10 C10           -0.6960    -2.4393    -0.8124 C.2     
  11 N11           -1.6064    -2.9101    -1.6876 N.am    
  12 O12           -1.0592    -1.8303     0.1716 O.2     
  13 C13           -3.0328    -2.5978    -1.5247 C.3     
  14 C14           -3.8271    -3.9077    -1.5215 C.3     
  15 C15           -3.4982    -4.7021    -2.7876 C.3     
  16 C16           -2.0062    -5.0420    -2.8054 C.3     
  17 C17           -1.1906    -3.7403    -2.8263 C.3     
  18 N18           -4.2833    -5.9436    -2.8041 N.3     
  19 C19           -4.0831    -6.6766    -4.0620 C.3     
  20 C20           -4.8528    -7.9984    -4.0072 C.3     
  21 N21           -6.2788    -7.7228    -3.7827 N.3     
  22 C22           -6.4790    -6.9898    -2.5249 C.3     
  23 C23           -5.7092    -5.6681    -2.5797 C.3     
  24 C24           -7.0638    -8.9644    -3.7992 C.3     
  25 O25            0.2361    -3.1386     1.9144 O.2     
  26 N26            2.4783    -3.5306     1.7377 N.am    
  27 C27            3.0589    -2.3131    -0.1062 C.ar    
  28 C28            3.5260    -3.1560     0.8948 C.ar    
  29 C29            3.9131    -1.8111    -1.0620 C.ar    
  30 C30            5.2565    -2.1456    -1.0325 C.ar    
  31 C31            5.7351    -2.9853    -0.0393 C.ar    
  32 C32            4.8782    -3.4895     0.9203 C.ar    
  33 Cl33           6.3376    -1.5155    -2.2359 Cl      
  34 F34            7.0455    -3.3125    -0.0092 F       
  35 C35            2.4051    -6.1803     2.4781 C.ar    
  36 C36            1.1611    -6.5657     1.9993 C.ar    
  37 C37            3.4475    -7.0872     2.5056 C.ar    
  38 C38            3.2541    -8.3792     2.0561 C.ar    
  39 C39            2.0116    -8.7696     1.5762 C.ar    
  40 C40            0.9644    -7.8619     1.5481 C.ar    
  41 O41            1.8219   -10.0407     1.1347 O.3     
  42 O42            0.1363    -5.6735     1.9730 O.3     
  43 C43           -1.1164    -6.1392     1.4672 C.3     
  44 C44            2.9450   -10.9223     1.1933 C.3     
  45 C45           -8.5180    -8.6531    -3.4398 C.3     
  46 C46           -7.0056    -9.5861    -5.1960 C.3     
  47 S47            2.6579    -4.5312     3.0449 S.o2    
  48 O48            4.0224    -4.4447     3.4320 O.2     
  49 O49            1.5805    -4.2396     3.9244 O.2     
  50 O50            1.6813    -0.1656    -1.8760 O.3     
  51 C51            2.1645     0.2241    -4.2116 C.3     
  52 C52            1.6225     0.8187    -2.9103 C.3     
  53 H53            1.0646     2.2830    -1.1796 H       
  54 H54            0.8156    -1.0201     2.4694 H       
  55 H55            0.2709     1.3410     2.9029 H       
  56 H56            0.3937     2.9906     1.0807 H       
  57 H57            1.0785    -2.1419    -1.9599 H       
  58 H58            0.9583    -3.7368    -1.1788 H       
  59 H59           -3.1868    -2.0748    -0.5808 H       
  60 H60           -3.3662    -1.9703    -2.3512 H       
  61 H61           -3.5574    -4.4946    -0.6435 H       
  62 H62           -4.8941    -3.6861    -1.4980 H       
  63 H63           -3.7451    -4.1049    -3.6654 H       
  64 H64           -1.7536    -5.6182    -1.9153 H       
  65 H65           -1.7771    -5.6278    -3.6957 H       
  66 H66           -1.3749    -3.2085    -3.7597 H       
  67 H67           -0.1292    -3.9727    -2.7392 H       
  68 H68           -4.4496    -6.0766    -4.8948 H       
  69 H69           -3.0210    -6.8798    -4.1994 H       
  70 H70           -4.7293    -8.5305    -4.9504 H       
  71 H71           -4.4677    -8.6099    -3.1912 H       
  72 H72           -7.5410    -6.7867    -2.3874 H       
  73 H73           -6.1124    -7.5899    -1.6920 H       
  74 H74           -5.8327    -5.1360    -1.6364 H       
  75 H75           -6.0943    -5.0566    -3.3957 H       
  76 H76           -6.6517    -9.6645    -3.0725 H       
  77 H77            3.5356    -1.1573    -1.8344 H       
  78 H78            5.2576    -4.1431     1.6918 H       
  79 H79            4.4150    -6.7853     2.8786 H       
  80 H80            4.0705    -9.0859     2.0779 H       
  81 H81           -0.0033    -8.1639     1.1754 H       
  82 H82           -1.8456    -5.3298     1.5016 H       
  83 H83           -0.9912    -6.4719     0.4368 H       
  84 H84           -1.4680    -6.9712     2.0774 H       
  85 H85            2.6580   -11.9023     0.8120 H       
  86 H86            3.7554   -10.5192     0.5859 H       
  87 H87            3.2784   -11.0179     2.2266 H       
  88 H88           -8.9301    -7.9530    -4.1665 H       
  89 H89           -9.1005    -9.5743    -3.4520 H       
  90 H90           -8.5595    -8.2102    -2.4447 H       
  91 H91           -7.4176    -8.8860    -5.9228 H       
  92 H92           -5.9695    -9.8078    -5.4521 H       
  93 H93           -7.5881   -10.5073    -5.2083 H       
  94 H94            3.1677    -0.1672    -4.0421 H       
  95 H95            1.5108    -0.5830    -4.5423 H       
  96 H96            2.2014     0.9988    -4.9774 H       
  97 H97            0.5884     1.1308    -3.0564 H       
  98 H98            2.2255     1.6810    -2.6259 H       
@<TRIPOS>BOND
   1    1    2 ar
   2    1    6 ar
   3    1   53 1
   4    2    3 ar
   5    2   50 1
   6    3    4 ar
   7    3    7 1
   8    4    5 ar
   9    4   54 1
  10    5    6 ar
  11    5   55 1
  12    6   56 1
  13    7    8 1
  14    7    9 1
  15    7   27 1
  16    8   25 2
  17    8   26 am
  18    9   10 1
  19    9   57 1
  20    9   58 1
  21   10   11 am
  22   10   12 2
  23   11   13 1
  24   11   17 1
  25   13   14 1
  26   13   59 1
  27   13   60 1
  28   14   15 1
  29   14   61 1
  30   14   62 1
  31   15   16 1
  32   15   18 1
  33   15   63 1
  34   16   17 1
  35   16   64 1
  36   16   65 1
  37   17   66 1
  38   17   67 1
  39   18   19 1
  40   18   23 1
  41   19   20 1
  42   19   68 1
  43   19   69 1
  44   20   21 1
  45   20   70 1
  46   20   71 1
  47   21   22 1
  48   21   24 1
  49   22   23 1
  50   22   72 1
  51   22   73 1
  52   23   74 1
  53   23   75 1
  54   24   45 1
  55   24   46 1
  56   24   76 1
  57   26   47 am
  58   26   28 1
  59   27   28 ar
  60   27   29 ar
  61   28   32 ar
  62   29   30 ar
  63   29   77 1
  64   30   31 ar
  65   30   33 1
  66   31   32 ar
  67   31   34 1
  68   32   78 1
  69   35   36 ar
  70   35   37 ar
  71   35   47 1
  72   36   42 1
  73   36   40 ar
  74   37   38 ar
  75   37   79 1
  76   38   39 ar
  77   38   80 1
  78   39   40 ar
  79   39   41 1
  80   40   81 1
  81   41   44 1
  82   42   43 1
  83   43   82 1
  84   43   83 1
  85   43   84 1
  86   44   85 1
  87   44   86 1
  88   44   87 1
  89   45   88 1
  90   45   89 1
  91   45   90 1
  92   46   91 1
  93   46   92 1
  94   46   93 1
  95   47   48 2
  96   47   49 2
  97   50   52 1
  98   51   52 1
  99   51   94 1
 100   51   95 1
 101   51   96 1
 102   52   97 1
 103   52   98 1

#	End of record

