#	Name: ASD00191021
#	Creating user name:	WinNT
#	Creation time:	15. 06. 2019 18:33

#	Modifying user name:	WinNT
#	Modification time:	15. 06. 2019 18:33

#	Program:	/corina/corina34_cracker 3.40 0067  02.08.2006

@<TRIPOS>MOLECULE
ASD00191021
  48   52    0    0    0
SMALL
NO_CHARGES


@<TRIPOS>ATOM
   1 C1            -0.0142     1.3575     0.0071 C.ar    
   2 C2             0.0050    -0.0052    -0.0078 C.ar    
   3 C3             1.2069    -0.7047    -0.0374 C.ar    
   4 C4             2.3991    -0.0413    -0.0517 C.ar    
   5 C5             2.4138     1.3571    -0.0370 C.ar    
   6 C6             1.1926     2.0734    -0.0074 C.ar    
   7 C7             3.6589     2.1125    -0.0519 C.ar    
   8 C8             3.5789     3.5086    -0.0359 C.ar    
   9 C9             2.3057     4.1210    -0.0064 C.ar    
  10 N10            1.1984     3.4146     0.0073 N.ar    
  11 N11            4.9900     1.8002    -0.0793 N.pl3   
  12 C12            5.6815     2.9727    -0.0798 C.2     
  13 N13            4.8504     3.9750    -0.0542 N.2     
  14 C14            7.1835     3.0928    -0.1059 C.3     
  15 C15            7.7279     2.9932     1.3205 C.3     
  16 C16            9.2528     3.1152     1.2940 C.3     
  17 C17            9.8401     1.9867     0.4440 C.3     
  18 C18            9.2956     2.0862    -0.9823 C.3     
  19 C19            7.7707     1.9643    -0.9558 C.3     
  20 N20            2.2231     5.5041     0.0100 N.pl3   
  21 C21            0.9773     6.1309    -0.0807 C.ar    
  22 C22            0.7430     7.3158     0.6053 C.ar    
  23 C23           -0.4901     7.9336     0.5139 C.ar    
  24 C24           -1.4909     7.3724    -0.2597 C.ar    
  25 C25           -1.2605     6.1917    -0.9438 C.ar    
  26 C26           -0.0271     5.5732    -0.8614 C.ar    
  27 Cl27          -0.7838     9.4145     1.3708 Cl      
  28 Cl28          -2.5192     5.4907    -1.9122 Cl      
  29 H29           -0.9562     1.8853     0.0256 H       
  30 H30           -0.9273    -0.5502     0.0039 H       
  31 H31            1.1963    -1.7846    -0.0487 H       
  32 H32            3.3270    -0.5934    -0.0739 H       
  33 H33            5.3709     0.9083    -0.0953 H       
  34 H34            7.4636     4.0546    -0.5354 H       
  35 H35            7.3096     3.7972     1.9260 H       
  36 H36            7.4478     2.0314     1.7500 H       
  37 H37            9.5330     4.0771     0.8645 H       
  38 H38            9.6407     3.0443     2.3102 H       
  39 H39           10.9264     2.0736     0.4252 H       
  40 H40            9.5599     1.0248     0.8736 H       
  41 H41            9.5757     3.0481    -1.4119 H       
  42 H42            9.7139     1.2822    -1.5879 H       
  43 H43            7.4906     1.0024    -0.5263 H       
  44 H44            7.3828     2.0352    -1.9720 H       
  45 H45            3.0301     6.0373     0.0843 H       
  46 H46            1.5235     7.7538     1.2097 H       
  47 H47           -2.4538     7.8566    -0.3295 H       
  48 H48            0.1524     4.6519    -1.3957 H       
@<TRIPOS>BOND
   1    1    2 ar
   2    1    6 ar
   3    1   29 1
   4    2    3 ar
   5    2   30 1
   6    3    4 ar
   7    3   31 1
   8    4    5 ar
   9    4   32 1
  10    5    6 ar
  11    5    7 ar
  12    6   10 ar
  13    7    8 ar
  14    7   11 1
  15    8    9 ar
  16    8   13 1
  17    9   10 ar
  18    9   20 1
  19   11   12 1
  20   11   33 1
  21   12   13 2
  22   12   14 1
  23   14   15 1
  24   14   19 1
  25   14   34 1
  26   15   16 1
  27   15   35 1
  28   15   36 1
  29   16   17 1
  30   16   37 1
  31   16   38 1
  32   17   18 1
  33   17   39 1
  34   17   40 1
  35   18   19 1
  36   18   41 1
  37   18   42 1
  38   19   43 1
  39   19   44 1
  40   20   21 1
  41   20   45 1
  42   21   22 ar
  43   21   26 ar
  44   22   23 ar
  45   22   46 1
  46   23   24 ar
  47   23   27 1
  48   24   25 ar
  49   24   47 1
  50   25   26 ar
  51   25   28 1
  52   26   48 1

#	End of record

