#	Name: ASD03331855
#	Creating user name:	WinNT
#	Creation time:	15. 06. 2019 20:40

#	Modifying user name:	WinNT
#	Modification time:	15. 06. 2019 20:40

#	Program:	/corina/corina34_cracker 3.40 0067  02.08.2006

@<TRIPOS>MOLECULE
ASD03331855
  48   51    0    0    0
SMALL
NO_CHARGES


@<TRIPOS>ATOM
   1 C1             8.3971    -0.3474     1.1506 C.ar    
   2 C2             8.8953     0.0866     2.3663 C.ar    
   3 C3             8.3559     1.2039     2.9786 C.ar    
   4 C4             7.3181     1.8889     2.3777 C.ar    
   5 C5             6.8162     1.4556     1.1577 C.ar    
   6 C6             7.3597     0.3341     0.5451 C.ar    
   7 N7             5.7641     2.1476     0.5466 N.am    
   8 C8             5.6911     3.4896     0.6484 C.2     
   9 N9             4.7315     4.1645    -0.0148 N.am    
  10 O10            6.4911     4.0913     1.3387 O.2     
  11 C11            4.5951     5.5456     0.1660 C.ar    
  12 C12            3.1939     7.4894     0.3389 C.ar    
  13 C13            3.3328     6.1257     0.1606 C.ar    
  14 C14            5.7195     6.3346     0.3565 C.ar    
  15 C15            5.5788     7.7082     0.5365 C.ar    
  16 C16            4.3083     8.2824     0.5242 C.ar    
  17 C17            6.7770     8.5580     0.7411 C.ar    
  18 N18            7.9765     7.9930     0.7500 N.ar    
  19 C19            9.0692     8.7186     0.9293 C.ar    
  20 C20            8.9524    10.0840     1.1095 C.ar    
  21 C21            7.6758    10.6514     1.0954 C.ar    
  22 N22            6.6226     9.8643     0.9053 N.ar    
  23 N23            7.5110    12.0156     1.2724 N.3     
  24 C24            6.0850    12.3867     1.2202 C.3     
  25 C25            5.7515    13.1076     2.5434 C.3     
  26 C26            7.1379    13.6071     3.0283 C.3     
  27 C27            8.0638    12.4519     2.5724 C.3     
  28 Br28          10.3154    -0.8495     3.1927 Br      
  29 H29            8.8230    -1.2172     0.6726 H       
  30 H30            8.7467     1.5406     3.9276 H       
  31 H31            6.8970     2.7606     2.8565 H       
  32 H32            6.9714    -0.0049    -0.4040 H       
  33 H33            5.0875     1.6614     0.0499 H       
  34 H34            4.1353     3.6931    -0.6175 H       
  35 H35            2.2104     7.9356     0.3335 H       
  36 H36            2.4576     5.5096     0.0163 H       
  37 H37            6.7014     5.8850     0.3655 H       
  38 H38            4.1960     9.3476     0.6626 H       
  39 H39           10.0416     8.2486     0.9352 H       
  40 H40            9.8282    10.6983     1.2581 H       
  41 H41            5.9064    13.0556     0.3783 H       
  42 H42            5.4721    11.4908     1.1214 H       
  43 H43            5.0797    13.9474     2.3660 H       
  44 H44            5.3192    12.4121     3.2628 H       
  45 H45            7.4096    14.5419     2.5379 H       
  46 H46            7.1559    13.7172     4.1126 H       
  47 H47            8.0321    11.6337     3.2919 H       
  48 H48            9.0856    12.8106     2.4491 H       
@<TRIPOS>BOND
   1    1    2 ar
   2    1    6 ar
   3    1   29 1
   4    2    3 ar
   5    2   28 1
   6    3    4 ar
   7    3   30 1
   8    4    5 ar
   9    4   31 1
  10    5    6 ar
  11    5    7 1
  12    6   32 1
  13    7    8 am
  14    7   33 1
  15    8    9 am
  16    8   10 2
  17    9   11 1
  18    9   34 1
  19   11   14 ar
  20   11   13 ar
  21   12   13 ar
  22   12   16 ar
  23   12   35 1
  24   13   36 1
  25   14   15 ar
  26   14   37 1
  27   15   16 ar
  28   15   17 1
  29   16   38 1
  30   17   18 ar
  31   17   22 ar
  32   18   19 ar
  33   19   20 ar
  34   19   39 1
  35   20   21 ar
  36   20   40 1
  37   21   22 ar
  38   21   23 1
  39   23   24 1
  40   23   27 1
  41   24   25 1
  42   24   41 1
  43   24   42 1
  44   25   26 1
  45   25   43 1
  46   25   44 1
  47   26   27 1
  48   26   45 1
  49   26   46 1
  50   27   47 1
  51   27   48 1

#	End of record

