#	Name: ASD01911087
#	Creating user name:	WinNT
#	Creation time:	15. 06. 2019 19:57

#	Modifying user name:	WinNT
#	Modification time:	15. 06. 2019 19:57

#	Program:	/corina/corina34_cracker 3.40 0067  02.08.2006

@<TRIPOS>MOLECULE
ASD01911087
  49   52    0    0    0
SMALL
NO_CHARGES


@<TRIPOS>ATOM
   1 N1            -0.8505     1.8214     1.0484 N.pl3   
   2 C2            -0.8657     0.4901     0.7100 C.2     
   3 N3            -1.8529    -0.3645     0.9130 N.2     
   4 C4            -1.4193    -1.5374     0.4226 C.2     
   5 N5            -0.2206    -1.3489    -0.0440 N.2     
   6 O6             0.1158    -0.1932     0.1043 O.3     
   7 C7            -2.1834    -2.8363     0.4151 C.3     
   8 C8            -2.3666    -3.3129    -1.0276 C.3     
   9 C9            -3.1708    -4.6149    -1.0384 C.3     
  10 C10           -2.4014    -5.6920    -0.2673 C.3     
  11 N11           -2.0945    -5.1835     1.0765 N.am    
  12 C12           -1.4028    -3.8933     1.2026 C.3     
  13 C13           -2.4408    -5.8870     2.1726 C.2     
  14 O14           -2.1207    -5.4897     3.2761 O.2     
  15 C15           -3.2093    -7.1409     2.0332 C.ar    
  16 C16           -2.7812    -8.1301     1.1453 C.ar    
  17 C17           -3.5021    -9.2981     1.0191 C.ar    
  18 C18           -4.6503    -9.4919     1.7718 C.ar    
  19 C19           -5.0800    -8.5128     2.6545 C.ar    
  20 C20           -4.3633    -7.3437     2.7931 C.ar    
  21 F21           -5.3531   -10.6386     1.6442 F       
  22 C22            0.3289     2.6388     0.7531 C.3     
  23 C23            0.0911     4.0513     1.2214 C.ar    
  24 C24            0.4423     4.4214     2.5063 C.ar    
  25 C25            0.2252     5.7165     2.9367 C.ar    
  26 C26           -0.3444     6.6437     2.0805 C.ar    
  27 C27           -0.6958     6.2719     0.7938 C.ar    
  28 C28           -0.4729     4.9775     0.3639 C.ar    
  29 F29           -0.5576     7.9100     2.5003 F       
  30 H30           -1.6221     2.2211     1.4793 H       
  31 H31           -3.1600    -2.6866     0.8755 H       
  32 H32           -2.9004    -2.5516    -1.5965 H       
  33 H33           -1.3899    -3.4856    -1.4797 H       
  34 H34           -4.1381    -4.4489    -0.5641 H       
  35 H35           -3.3209    -4.9413    -2.0674 H       
  36 H36           -3.0127    -6.5909    -0.1870 H       
  37 H37           -1.4740    -5.9240    -0.7909 H       
  38 H38           -0.3939    -3.9786     0.7989 H       
  39 H39           -1.3553    -3.6054     2.2528 H       
  40 H40           -1.8872    -7.9800     0.5582 H       
  41 H41           -3.1721   -10.0636     0.3324 H       
  42 H42           -5.9753    -8.6687     3.2382 H       
  43 H43           -4.6986    -6.5818     3.4813 H       
  44 H44            1.1956     2.2260     1.2692 H       
  45 H45            0.5116     2.6382    -0.3215 H       
  46 H46            0.8863     3.6979     3.1740 H       
  47 H47            0.4993     6.0053     3.9406 H       
  48 H48           -1.1402     6.9942     0.1251 H       
  49 H49           -0.7469     4.6873    -0.6396 H       
@<TRIPOS>BOND
   1    1    2 1
   2    1   22 1
   3    1   30 1
   4    2    3 2
   5    2    6 1
   6    3    4 1
   7    4    5 2
   8    4    7 1
   9    5    6 1
  10    7    8 1
  11    7   12 1
  12    7   31 1
  13    8    9 1
  14    8   32 1
  15    8   33 1
  16    9   10 1
  17    9   34 1
  18    9   35 1
  19   10   11 1
  20   10   36 1
  21   10   37 1
  22   11   12 1
  23   11   13 am
  24   12   38 1
  25   12   39 1
  26   13   14 2
  27   13   15 1
  28   15   16 ar
  29   15   20 ar
  30   16   17 ar
  31   16   40 1
  32   17   18 ar
  33   17   41 1
  34   18   19 ar
  35   18   21 1
  36   19   20 ar
  37   19   42 1
  38   20   43 1
  39   22   23 1
  40   22   44 1
  41   22   45 1
  42   23   24 ar
  43   23   28 ar
  44   24   25 ar
  45   24   46 1
  46   25   26 ar
  47   25   47 1
  48   26   27 ar
  49   26   29 1
  50   27   28 ar
  51   27   48 1
  52   28   49 1

#	End of record

