#	Name: ASD00330005
#	Creating user name:	WinNT
#	Creation time:	15. 06. 2019 18:35

#	Modifying user name:	WinNT
#	Modification time:	15. 06. 2019 18:35

#	Program:	/corina/corina34_cracker 3.40 0067  02.08.2006

@<TRIPOS>MOLECULE
ASD00330005
  45   46    0    0    0
SMALL
NO_CHARGES


@<TRIPOS>ATOM
   1 O1            -0.0175     1.4400     0.0100 O.3     
   2 C2             0.0021    -0.0041     0.0020 C.3     
   3 C3             1.3704     1.8394    -0.0011 C.3     
   4 C4             1.1520    -0.3885     0.9592 C.3     
   5 C5             2.0729     0.8522     0.9571 C.3     
   6 O6             0.6481    -0.6358     2.2734 O.3     
   7 O7             3.3700     0.5122     0.4631 O.3     
   8 C8            -1.3278    -0.5576     0.5178 C.3     
   9 O9            -2.3700    -0.2279    -0.4027 O.3     
  10 P10           -3.9061    -0.6539    -0.1772 P.3     
  11 O11           -4.3650    -0.1654     1.1423 O.2     
  12 O12           -4.8180    -0.0070    -1.3357 O.3     
  13 O13           -4.0313    -2.2582    -0.2287 O.3     
  14 P14           -6.3913     0.3041    -1.4779 P.3     
  15 O15           -6.7675     0.4670    -3.0349 O.3     
  16 P16           -8.1524     0.4755    -3.8558 P.3     
  17 O17           -8.7181    -1.0275    -3.9696 O.3     
  18 O18           -7.1695    -0.8125    -0.8965 O.2     
  19 O19           -6.7417     1.6670    -0.6957 O.3     
  20 O20           -9.1396     1.3220    -3.1492 O.2     
  21 O21           -7.8978     1.0663    -5.3317 O.3     
  22 N22            1.5098     3.2128     0.4894 N.am    
  23 C23            0.9870     3.5544     1.6814 C.2     
  24 N24            1.0990     4.7952     2.1513 N.2     
  25 C25            1.7318     5.7302     1.4537 C.2     
  26 C26            2.2913     5.4066     0.2023 C.2     
  27 C27            2.1734     4.1373    -0.2614 C.2     
  28 O28            0.4004     2.7134     2.3423 O.2     
  29 N29            1.8404     7.0089     1.9501 N.pl3   
  30 Br30           2.9094     3.6590    -1.9364 Br      
  31 H31            0.2045    -0.3753    -1.0026 H       
  32 H32            1.7827     1.7510    -1.0063 H       
  33 H33            1.6861    -1.2612     0.5835 H       
  34 H34            2.1438     1.2770     1.9584 H       
  35 H35            1.3281    -0.8813     2.9156 H       
  36 H36            3.8559    -0.1055     1.0264 H       
  37 H37           -1.2574    -1.6411     0.6141 H       
  38 H38           -1.5506    -0.1200     1.4909 H       
  39 H39           -3.7471    -2.6482    -1.0667 H       
  40 H40           -8.1216    -1.6390    -4.4227 H       
  41 H41           -6.2666     2.4424    -1.0245 H       
  42 H42           -8.6910     1.1010    -5.8837 H       
  43 H43            2.8092     6.1564    -0.3773 H       
  44 H44            1.4539     7.2290     2.8121 H       
  45 H45            2.3035     7.6903     1.4381 H       
@<TRIPOS>BOND
   1    1    2 1
   2    1    3 1
   3    2    4 1
   4    2    8 1
   5    2   31 1
   6    3    5 1
   7    3   22 1
   8    3   32 1
   9    4    5 1
  10    4    6 1
  11    4   33 1
  12    5    7 1
  13    5   34 1
  14    6   35 1
  15    7   36 1
  16    8    9 1
  17    8   37 1
  18    8   38 1
  19    9   10 1
  20   10   11 2
  21   10   12 1
  22   10   13 1
  23   12   14 1
  24   13   39 1
  25   14   15 1
  26   14   18 2
  27   14   19 1
  28   15   16 1
  29   16   17 1
  30   16   20 2
  31   16   21 1
  32   17   40 1
  33   19   41 1
  34   21   42 1
  35   22   23 am
  36   22   27 1
  37   23   24 1
  38   23   28 2
  39   24   25 2
  40   25   26 1
  41   25   29 1
  42   26   27 2
  43   26   43 1
  44   27   30 1
  45   29   44 1
  46   29   45 1

#	End of record

