#	Name: ASD01885709
#	Creating user name:	WinNT
#	Creation time:	15. 06. 2019 19:50

#	Modifying user name:	WinNT
#	Modification time:	15. 06. 2019 19:50

#	Program:	/corina/corina34_cracker 3.40 0067  02.08.2006

@<TRIPOS>MOLECULE
ASD01885709
  54   57    0    0    0
SMALL
NO_CHARGES


@<TRIPOS>ATOM
   1 C1            -0.7613     1.9520    -0.7660 C.ar    
   2 C2            -1.9828     2.6058    -1.0685 C.ar    
   3 C3            -1.9857     4.0128    -1.2443 C.ar    
   4 C4            -0.7795     4.6867    -1.1100 C.ar    
   5 C5             0.3826     3.9670    -0.8101 C.ar    
   6 N6             0.3652     2.6566    -0.6556 N.ar    
   7 C7            -0.7601     0.5548    -0.5917 C.ar    
   8 C8            -1.9233    -0.1412    -0.7101 C.ar    
   9 C9            -3.1218     0.5064    -1.0022 C.ar    
  10 C10           -3.1597     1.8560    -1.1885 C.ar    
  11 C11           -3.2357     4.7402    -1.5616 C.ar    
  12 C12           -3.5979     5.8656    -0.8208 C.ar    
  13 C13           -4.7632     6.5397    -1.1202 C.ar    
  14 C14           -4.0524     4.3058    -2.6060 C.ar    
  15 C15            1.6681     4.6936    -0.6748 C.2     
  16 N16            2.7994     4.0157    -0.3974 N.am    
  17 O17            1.7014     5.9002    -0.8141 O.2     
  18 C18           -1.9171    -1.6348    -0.5100 C.3     
  19 N19           -1.6834    -2.2987    -1.7948 N.pl3   
  20 C20           -5.5740     6.1008    -2.1550 C.ar    
  21 C21           -5.2157     4.9867    -2.8976 C.ar    
  22 F22           -6.7149     6.7642    -2.4442 F       
  23 C23           -0.4676    -2.6378    -2.3245 C.2     
  24 C24           -0.7101    -3.2246    -3.5122 C.2     
  25 N25           -2.0376    -3.2433    -3.7024 N.2     
  26 C26           -2.6274    -2.6956    -2.6752 C.2     
  27 C27            0.3283    -3.7655    -4.4611 C.3     
  28 C28            1.2661    -2.6350    -4.8892 C.3     
  29 C29           -0.3631    -4.3494    -5.6948 C.3     
  30 C30           -1.2374    -5.5334    -5.2769 C.3     
  31 F31            1.9876    -2.1822    -3.7794 F       
  32 F32            2.1540    -3.1086    -5.8611 F       
  33 F33            0.5143    -1.5806    -5.4185 F       
  34 O34            1.0826    -4.7890    -3.8087 O.3     
  35 H35           -0.7382     5.7585    -1.2365 H       
  36 H36            0.1605     0.0376    -0.3652 H       
  37 H37           -4.0325    -0.0686    -1.0823 H       
  38 H38           -4.0943     2.3460    -1.4183 H       
  39 H39           -2.9669     6.2082    -0.0140 H       
  40 H40           -5.0446     7.4108    -0.5471 H       
  41 H41           -3.7739     3.4380    -3.1854 H       
  42 H42            2.7728     3.0525    -0.2863 H       
  43 H43            3.6403     4.4911    -0.3090 H       
  44 H44           -1.1245    -1.9047     0.1879 H       
  45 H45           -2.8792    -1.9514    -0.1072 H       
  46 H46           -5.8507     4.6488    -3.7032 H       
  47 H47            0.5001    -2.4671    -1.8765 H       
  48 H48           -3.6934    -2.5733    -2.5527 H       
  49 H49           -0.9854    -3.5842    -6.1588 H       
  50 H50            0.3894    -4.6871    -6.4073 H       
  51 H51           -1.8103    -5.8830    -6.1358 H       
  52 H52           -0.6041    -6.3409    -4.9096 H       
  53 H53           -1.9207    -5.2198    -4.4877 H       
  54 H54            0.5510    -5.5393    -3.5096 H       
@<TRIPOS>BOND
   1    1    7 ar
   2    1    6 ar
   3    1    2 ar
   4    2    3 ar
   5    2   10 ar
   6    3   11 1
   7    3    4 ar
   8    4    5 ar
   9    4   35 1
  10    5   15 1
  11    5    6 ar
  12    7    8 ar
  13    7   36 1
  14    8    9 ar
  15    8   18 1
  16    9   10 ar
  17    9   37 1
  18   10   38 1
  19   11   12 ar
  20   11   14 ar
  21   12   13 ar
  22   12   39 1
  23   13   20 ar
  24   13   40 1
  25   14   21 ar
  26   14   41 1
  27   15   16 am
  28   15   17 2
  29   16   42 1
  30   16   43 1
  31   18   19 1
  32   18   44 1
  33   18   45 1
  34   19   23 1
  35   19   26 1
  36   20   21 ar
  37   20   22 1
  38   21   46 1
  39   23   24 2
  40   23   47 1
  41   24   25 1
  42   24   27 1
  43   25   26 2
  44   26   48 1
  45   27   28 1
  46   27   29 1
  47   27   34 1
  48   28   31 1
  49   28   32 1
  50   28   33 1
  51   29   30 1
  52   29   49 1
  53   29   50 1
  54   30   51 1
  55   30   52 1
  56   30   53 1
  57   34   54 1

#	End of record

