#	Name: ASD01913556
#	Creating user name:	WinNT
#	Creation time:	15. 06. 2019 20:01

#	Modifying user name:	WinNT
#	Modification time:	15. 06. 2019 20:01

#	Program:	/corina/corina34_cracker 3.40 0067  02.08.2006

@<TRIPOS>MOLECULE
ASD01913556
  34   36    0    0    0
SMALL
NO_CHARGES


@<TRIPOS>ATOM
   1 C1            -0.3670    -0.7396    -2.2421 C.ar    
   2 C2            -0.6987    -0.0455    -1.0829 C.ar    
   3 C3            -0.5525     1.3343    -1.0585 C.ar    
   4 N4            -0.1062     1.9820    -2.1161 N.ar    
   5 C5             0.2169     1.3542    -3.2300 C.ar    
   6 C6             0.0983    -0.0192    -3.3306 C.ar    
   7 C7            -1.1819    -2.0674    -0.0311 C.ar    
   8 C8            -0.0745    -2.8008     0.3733 C.ar    
   9 N9            -0.0851    -4.1195     0.3432 N.ar    
  10 C10           -1.1357    -4.7986    -0.0671 C.ar    
  11 C11           -2.2903    -4.1379    -0.4903 C.ar    
  12 C12           -2.3149    -2.7390    -0.4724 C.ar    
  13 C13           -3.4676    -4.9038    -0.9508 C.2     
  14 N14           -3.4319    -6.2510    -0.9644 N.am    
  15 O15           -1.1596    -0.7092     0.0098 O.3     
  16 O16           -4.4681    -4.3186    -1.3172 O.2     
  17 C17           -4.5390    -6.9713    -1.3974 C.2     
  18 S18           -6.0563    -6.2732    -1.9576 S.3     
  19 C19           -6.6956    -7.8924    -2.2326 C.2     
  20 C20           -5.7543    -8.7764    -1.8943 C.2     
  21 N21           -4.6179    -8.2653    -1.4589 N.2     
  22 F22           -7.9265    -8.1880    -2.7046 F       
  23 C23           -5.9733   -10.2631    -2.0074 C.3     
  24 H24           -0.4655    -1.8140    -2.2910 H       
  25 H25           -0.8073     1.8830    -0.1639 H       
  26 H26            0.5786     1.9209    -4.0752 H       
  27 H27            0.3656    -0.5250    -4.2466 H       
  28 H28            0.8090    -2.2838     0.7174 H       
  29 H29           -1.1037    -5.8781    -0.0768 H       
  30 H30           -3.1917    -2.1959    -0.7926 H       
  31 H31           -2.6335    -6.7180    -0.6720 H       
  32 H32           -5.6623   -10.6020    -2.9956 H       
  33 H33           -5.3857   -10.7759    -1.2459 H       
  34 H34           -7.0302   -10.4867    -1.8625 H       
@<TRIPOS>BOND
   1    1    2 ar
   2    1    6 ar
   3    1   24 1
   4    2    3 ar
   5    2   15 1
   6    3    4 ar
   7    3   25 1
   8    4    5 ar
   9    5    6 ar
  10    5   26 1
  11    6   27 1
  12    7    8 ar
  13    7   12 ar
  14    7   15 1
  15    8    9 ar
  16    8   28 1
  17    9   10 ar
  18   10   11 ar
  19   10   29 1
  20   11   12 ar
  21   11   13 1
  22   12   30 1
  23   13   14 am
  24   13   16 2
  25   14   17 1
  26   14   31 1
  27   17   18 1
  28   17   21 2
  29   18   19 1
  30   19   20 2
  31   19   22 1
  32   20   21 1
  33   20   23 1
  34   23   32 1
  35   23   33 1
  36   23   34 1

#	End of record

