#	Name: ASD01917697
#	Creating user name:	WinNT
#	Creation time:	15. 06. 2019 20:09

#	Modifying user name:	WinNT
#	Modification time:	15. 06. 2019 20:09

#	Program:	/corina/corina34_cracker 3.40 0067  02.08.2006

@<TRIPOS>MOLECULE
ASD01917697
  43   45    0    0    0
SMALL
NO_CHARGES


@<TRIPOS>ATOM
   1 C1            -0.0189     1.5420     0.0105 C.3     
   2 C2             0.0021    -0.0041     0.0020 C.3     
   3 C3             1.3442    -0.3602     0.6025 C.2     
   4 N4             2.1544     0.7123     0.5924 N.am    
   5 C5             1.4890     1.8776    -0.0021 C.3     
   6 C6             1.9726     2.0879    -1.4383 C.3     
   7 C7             1.7603     3.1276     0.8374 C.3     
   8 C8             3.5253     0.7176     1.1090 C.3     
   9 O9             1.6451    -1.4541     1.0311 O.2     
  10 C10           -1.1170    -0.5514     0.8500 C.ar    
  11 N11           -1.1669    -0.2481     2.1330 N.ar    
  12 C12           -2.1226    -0.6989     2.9182 C.ar    
  13 C13           -3.1294    -1.5249     2.4111 C.ar    
  14 C14           -3.1046    -1.8653     1.0524 C.ar    
  15 C15           -2.0799    -1.3602     0.2682 C.ar    
  16 C16           -4.1654    -2.0195     3.2670 C.1     
  17 C17           -5.0148    -2.4251     3.9686 C.1     
  18 C18           -6.0508    -2.9198     4.8245 C.ar    
  19 C19           -6.0671    -2.5748     6.1780 C.ar    
  20 C20           -7.0703    -3.0556     6.9974 C.ar    
  21 C21           -8.0574    -3.8782     6.4784 C.ar    
  22 C22           -8.0457    -4.2228     5.1384 C.ar    
  23 C23           -7.0535    -3.7452     4.3082 C.ar    
  24 F24           -2.0176    -1.6573    -1.0483 F       
  25 F25           -7.0886    -2.7237     8.3069 F       
  26 H26           -0.5124     1.9304    -0.8804 H       
  27 H27           -0.4952     1.9207     0.9148 H       
  28 H28           -0.0716    -0.3810    -1.0181 H       
  29 H29            1.7647     1.1939    -2.0263 H       
  30 H30            1.4521     2.9397    -1.8759 H       
  31 H31            3.0456     2.2798    -1.4360 H       
  32 H32            2.8317     3.3271     0.8563 H       
  33 H33            1.2397     3.9793     0.3995 H       
  34 H34            1.4026     2.9669     1.8544 H       
  35 H35            3.7724    -0.2719     1.4936 H       
  36 H36            4.2150     0.9780     0.3061 H       
  37 H37            3.6084     1.4505     1.9114 H       
  38 H38           -2.1284    -0.4283     3.9637 H       
  39 H39           -3.8640    -2.5049     0.6275 H       
  40 H40           -5.2975    -1.9343     6.5829 H       
  41 H41           -8.8392    -4.2523     7.1228 H       
  42 H42           -8.8179    -4.8646     4.7407 H       
  43 H43           -7.0464    -4.0155     3.2626 H       
@<TRIPOS>BOND
   1    1    2 1
   2    1    5 1
   3    1   26 1
   4    1   27 1
   5    2    3 1
   6    2   10 1
   7    2   28 1
   8    3    4 am
   9    3    9 2
  10    4    5 1
  11    4    8 1
  12    5    6 1
  13    5    7 1
  14    6   29 1
  15    6   30 1
  16    6   31 1
  17    7   32 1
  18    7   33 1
  19    7   34 1
  20    8   35 1
  21    8   36 1
  22    8   37 1
  23   10   11 ar
  24   10   15 ar
  25   11   12 ar
  26   12   13 ar
  27   12   38 1
  28   13   14 ar
  29   13   16 1
  30   14   15 ar
  31   14   39 1
  32   15   24 1
  33   16   17 3
  34   17   18 1
  35   18   19 ar
  36   18   23 ar
  37   19   20 ar
  38   19   40 1
  39   20   21 ar
  40   20   25 1
  41   21   22 ar
  42   21   41 1
  43   22   23 ar
  44   22   42 1
  45   23   43 1

#	End of record

