#	Name: ASD02900006
#	Creating user name:	WinNT
#	Creation time:	15. 06. 2019 20:26

#	Modifying user name:	WinNT
#	Modification time:	15. 06. 2019 20:26

#	Program:	/corina/corina34_cracker 3.40 0067  02.08.2006

@<TRIPOS>MOLECULE
ASD02900006
  33   34    0    0    0
SMALL
NO_CHARGES


@<TRIPOS>ATOM
   1 C1            -0.0161     1.3382     0.0094 C.2     
   2 C2             0.0021    -0.0041     0.0020 C.2     
   3 C3             1.3788     1.7854    -0.0015 C.ar    
   4 C4             2.1615     0.6167    -0.0153 C.ar    
   5 C5             1.9965     3.0376    -0.0011 C.ar    
   6 N6             1.2946    -0.4529    -0.0127 N.pl3   
   7 C7             3.5485     0.7254    -0.0279 C.ar    
   8 C8             3.3601     3.1213    -0.0141 C.ar    
   9 C9             4.1371     1.9708    -0.0269 C.ar    
  10 P10           -4.4963     4.7193    -3.1110 P.3     
  11 C11           -2.8298     3.5185    -1.4019 C.3     
  12 C12           -1.5877     2.6252    -1.4129 C.3     
  13 O13           -0.4910     3.3413    -1.9844 O.3     
  14 C14           -1.2396     2.2180     0.0203 C.3     
  15 O15           -2.3362     1.5019     0.5918 O.3     
  16 O16           -4.3668     6.0332    -2.4423 O.2     
  17 O17           -5.8423     3.9921    -2.6095 O.3     
  18 O18           -4.5638     4.9329    -4.7053 O.3     
  19 O19           -3.2235     3.8034    -2.7457 O.3     
  20 H20           -0.8737    -0.6360     0.0073 H       
  21 H21            1.3985     3.9369     0.0091 H       
  22 H22            1.5605    -1.3858    -0.0196 H       
  23 H23            4.1616    -0.1636    -0.0382 H       
  24 H24            3.8374     4.0901    -0.0137 H       
  25 H25            5.2139     2.0531    -0.0363 H       
  26 H26           -3.6417     3.0055    -0.8864 H       
  27 H27           -2.6024     4.4505    -0.8845 H       
  28 H28           -1.7873     1.7326    -2.0058 H       
  29 H29           -0.2573     4.1491    -1.5071 H       
  30 H30           -1.0399     3.1106     0.6132 H       
  31 H31           -2.5700     0.6941     0.1144 H       
  32 H32           -5.9920     3.1237    -3.0076 H       
  33 H33           -5.3079     5.4766    -4.9982 H       
@<TRIPOS>BOND
   1    1    2 2
   2    1    3 1
   3    1   14 1
   4    2    6 1
   5    2   20 1
   6    3    4 ar
   7    3    5 ar
   8    4    6 1
   9    4    7 ar
  10    5    8 ar
  11    5   21 1
  12    6   22 1
  13    7    9 ar
  14    7   23 1
  15    8    9 ar
  16    8   24 1
  17    9   25 1
  18   10   16 2
  19   10   17 1
  20   10   18 1
  21   10   19 1
  22   11   12 1
  23   11   19 1
  24   11   26 1
  25   11   27 1
  26   12   13 1
  27   12   14 1
  28   12   28 1
  29   13   29 1
  30   14   15 1
  31   14   30 1
  32   15   31 1
  33   17   32 1
  34   18   33 1

#	End of record

