#	Name: ASD03331711
#	Creating user name:	WinNT
#	Creation time:	15. 06. 2019 20:39

#	Modifying user name:	WinNT
#	Modification time:	15. 06. 2019 20:39

#	Program:	/corina/corina34_cracker 3.40 0067  02.08.2006

@<TRIPOS>MOLECULE
ASD03331711
  49   52    0    0    0
SMALL
NO_CHARGES


@<TRIPOS>ATOM
   1 C1             0.1761     1.3973     1.3455 C.ar    
   2 C2             0.3505     0.5710     2.4408 C.ar    
   3 C3             1.6221     0.3015     2.9118 C.ar    
   4 C4             2.7234     0.8571     2.2895 C.ar    
   5 C5             2.5528     1.6869     1.1900 C.ar    
   6 C6             1.2733     1.9563     0.7185 C.ar    
   7 N7             3.6668     2.2517     0.5577 N.am    
   8 C8             4.8670     1.6437     0.6372 C.2     
   9 N9             5.9213     2.1427    -0.0380 N.am    
  10 O10            4.9986     0.6450     1.3181 O.2     
  11 C11            7.1882     1.5692     0.1195 C.ar    
  12 C12            8.5617    -0.3725     0.4577 C.ar    
  13 C13            7.3122     0.1976     0.3017 C.ar    
  14 C14            8.3204     2.3693     0.0880 C.ar    
  15 C15            9.5787     1.7943     0.2451 C.ar    
  16 C16            9.6933     0.4176     0.4333 C.ar    
  17 C17           10.7942     2.6441     0.2120 C.ar    
  18 N18           10.6754     3.9549     0.0373 N.ar    
  19 C19           12.0474     2.0605     0.3700 C.ar    
  20 C20           13.1772     2.8636     0.3379 C.ar    
  21 C21           13.0170     4.2253     0.1487 C.ar    
  22 C22           11.7345     4.7466     0.0024 C.ar    
  23 N23           11.5651     6.1137    -0.1826 N.3     
  24 C24           11.2020     8.1085     1.0995 C.3     
  25 C25           12.1284     6.8757     0.9522 C.3     
  26 C26           10.1371     6.4559    -0.3153 C.3     
  27 C27            9.8132     7.4973     0.7765 C.3     
  28 Cl28           1.0541     2.9930    -0.6565 Cl      
  29 H29           -0.8183     1.6023     0.9773 H       
  30 H30           -0.5086     0.1356     2.9295 H       
  31 H31            1.7546    -0.3439     3.7675 H       
  32 H32            3.7163     0.6462     2.6585 H       
  33 H33            3.5749     3.0806     0.0624 H       
  34 H34            5.8020     2.8993    -0.6331 H       
  35 H35            8.6528    -1.4393     0.5991 H       
  36 H36            6.4299    -0.4249     0.3220 H       
  37 H37            8.2265     3.4352    -0.0584 H       
  38 H38           10.6679    -0.0312     0.5561 H       
  39 H39           12.1390     0.9944     0.5162 H       
  40 H40           14.1615     2.4356     0.4583 H       
  41 H41           13.8776     4.8771     0.1194 H       
  42 H42           11.2299     8.4985     2.1170 H       
  43 H43           11.4650     8.8829     0.3789 H       
  44 H44           12.1070     6.2743     1.8610 H       
  45 H45           13.1475     7.1913     0.7289 H       
  46 H46            9.9477     6.8810    -1.3010 H       
  47 H47            9.5270     5.5644    -0.1700 H       
  48 H48            9.3907     7.0136     1.6572 H       
  49 H49            9.1362     8.2604     0.3925 H       
@<TRIPOS>BOND
   1    1    2 ar
   2    1    6 ar
   3    1   29 1
   4    2    3 ar
   5    2   30 1
   6    3    4 ar
   7    3   31 1
   8    4    5 ar
   9    4   32 1
  10    5    6 ar
  11    5    7 1
  12    6   28 1
  13    7    8 am
  14    7   33 1
  15    8    9 am
  16    8   10 2
  17    9   11 1
  18    9   34 1
  19   11   14 ar
  20   11   13 ar
  21   12   13 ar
  22   12   16 ar
  23   12   35 1
  24   13   36 1
  25   14   15 ar
  26   14   37 1
  27   15   16 ar
  28   15   17 1
  29   16   38 1
  30   17   19 ar
  31   17   18 ar
  32   18   22 ar
  33   19   20 ar
  34   19   39 1
  35   20   21 ar
  36   20   40 1
  37   21   22 ar
  38   21   41 1
  39   22   23 1
  40   23   26 1
  41   23   25 1
  42   24   25 1
  43   24   27 1
  44   24   42 1
  45   24   43 1
  46   25   44 1
  47   25   45 1
  48   26   27 1
  49   26   46 1
  50   26   47 1
  51   27   48 1
  52   27   49 1

#	End of record

