#	Name: ASD03092004
#	Creating user name:	WinNT
#	Creation time:	15. 06. 2019 20:31

#	Modifying user name:	WinNT
#	Modification time:	15. 06. 2019 20:31

#	Program:	/corina/corina34_cracker 3.40 0067  02.08.2006

@<TRIPOS>MOLECULE
ASD03092004
  49   51    0    0    0
SMALL
NO_CHARGES


@<TRIPOS>ATOM
   1 C1             0.1838     1.7326     0.6579 C.ar    
   2 N2             0.3910     0.5191     0.1829 N.ar    
   3 C3            -0.5894    -0.2185    -0.3057 C.ar    
   4 C4            -1.8851     0.2574    -0.3388 C.ar    
   5 C5            -2.1493     1.5396     0.1548 C.ar    
   6 C6            -1.0805     2.2832     0.6683 C.ar    
   7 Cl7           -0.2445    -1.8071    -0.9148 Cl      
   8 C8            -3.5217     2.0918     0.1400 C.2     
   9 C9            -3.8614     3.4140     0.1823 C.2     
  10 C10           -5.2590     3.4982     0.1487 C.2     
  11 N11           -5.7472     2.2807     0.0887 N.2     
  12 N12           -4.6793     1.3745     0.0758 N.pl3   
  13 C13           -4.7874    -0.0853     0.0145 C.3     
  14 C14           -4.9332    -0.5250    -1.4437 C.3     
  15 C15           -5.1675    -2.0360    -1.4997 C.3     
  16 C16           -5.4371    -2.4570    -2.9457 C.3     
  17 N17           -6.0087     4.6804     0.1751 N.pl3   
  18 C18           -7.3974     4.6313     0.0182 C.ar    
  19 C19           -8.1940     5.6333     0.5570 C.ar    
  20 C20           -9.5654     5.5829     0.4003 C.ar    
  21 C21          -10.1460     4.5347    -0.2933 C.ar    
  22 C22           -9.3536     3.5345    -0.8315 C.ar    
  23 C23           -7.9817     3.5833    -0.6819 C.ar    
  24 C24          -10.4305     6.6695     0.9852 C.3     
  25 F25          -11.4877     4.4873    -0.4449 F       
  26 O26           -4.0084    -2.7160    -1.0138 O.3     
  27 C27            1.3440     2.5255     1.2023 C.3     
  28 F28           -9.6230     7.6098     1.6341 F       
  29 F29          -11.1465     7.2978    -0.0395 F       
  30 F30          -11.3249     6.1098     1.9038 F       
  31 H31           -2.6824    -0.3507    -0.7400 H       
  32 H32           -1.2421     3.2770     1.0589 H       
  33 H33           -3.1747     4.2461     0.2326 H       
  34 H34           -3.8906    -0.5342     0.4415 H       
  35 H35           -5.6607    -0.4090     0.5807 H       
  36 H36           -5.7801    -0.0090    -1.8959 H       
  37 H37           -4.0232    -0.2780    -1.9904 H       
  38 H38           -6.0264    -2.2937    -0.8801 H       
  39 H39           -4.5782    -2.1993    -3.5653 H       
  40 H40           -5.6040    -3.5334    -2.9856 H       
  41 H41           -6.3212    -1.9382    -3.3163 H       
  42 H42           -5.5648     5.5335     0.3023 H       
  43 H43           -7.7415     6.4509     1.0984 H       
  44 H44           -9.8087     2.7176    -1.3718 H       
  45 H45           -7.3642     2.8033    -1.1021 H       
  46 H46           -3.2044    -2.5330    -1.5189 H       
  47 H47            1.7925     3.1110     0.3997 H       
  48 H48            0.9905     3.1949     1.9866 H       
  49 H49            2.0882     1.8441     1.6145 H       
@<TRIPOS>BOND
   1    1    2 ar
   2    1   27 1
   3    1    6 ar
   4    2    3 ar
   5    3    4 ar
   6    3    7 1
   7    4    5 ar
   8    4   31 1
   9    5    6 ar
  10    5    8 1
  11    6   32 1
  12    8    9 2
  13    8   12 1
  14    9   10 1
  15    9   33 1
  16   10   11 2
  17   10   17 1
  18   11   12 1
  19   12   13 1
  20   13   14 1
  21   13   34 1
  22   13   35 1
  23   14   15 1
  24   14   36 1
  25   14   37 1
  26   15   16 1
  27   15   26 1
  28   15   38 1
  29   16   39 1
  30   16   40 1
  31   16   41 1
  32   17   18 1
  33   17   42 1
  34   18   19 ar
  35   18   23 ar
  36   19   20 ar
  37   19   43 1
  38   20   21 ar
  39   20   24 1
  40   21   22 ar
  41   21   25 1
  42   22   23 ar
  43   22   44 1
  44   23   45 1
  45   24   28 1
  46   24   29 1
  47   24   30 1
  48   26   46 1
  49   27   47 1
  50   27   48 1
  51   27   49 1

#	End of record

