#	Name: ASD02030292
#	Creating user name:	WinNT
#	Creation time:	15. 06. 2019 20:15

#	Modifying user name:	WinNT
#	Modification time:	15. 06. 2019 20:15

#	Program:	/corina/corina34_cracker 3.40 0067  02.08.2006

@<TRIPOS>MOLECULE
ASD02030292
  62   65    0    0    0
SMALL
NO_CHARGES


@<TRIPOS>ATOM
   1 N1            -0.2105     1.4225    -0.1400 N.am    
   2 C2            -0.0192    -0.0108     0.1224 C.3     
   3 C3            -0.9158    -0.4177     1.2983 C.3     
   4 N4            -2.2752     0.0811     1.0469 N.am    
   5 C5            -2.4665     1.5144     0.7845 C.3     
   6 C6            -1.5705     1.9222    -0.3859 C.3     
   7 C7             0.8418     2.2646    -0.1494 C.2     
   8 C8             2.1846     1.7739     0.2269 C.2     
   9 N9             3.2627     2.5118     0.3819 N.2     
  10 N10            2.5182     0.4944     0.4771 N.2     
  11 C11            3.7926     0.4757     0.7742 C.2     
  12 N12            4.2446     1.7450     0.7106 N.pl3   
  13 C13            5.5599     2.1596     0.9599 C.ar    
  14 O14            0.6868     3.4276    -0.4673 O.2     
  15 C15           -3.3275    -0.7610     1.0563 C.2     
  16 C16           -4.7001    -0.2306     0.9119 C.ar    
  17 O17           -3.1481    -1.9565     1.1835 O.2     
  18 C18            5.8964     3.5025     0.8598 C.ar    
  19 C19            7.1949     3.9083     1.1063 C.ar    
  20 C20            8.1580     2.9767     1.4520 C.ar    
  21 C21            7.8247     1.6383     1.5518 C.ar    
  22 C22            6.5278     1.2283     1.3131 C.ar    
  23 C23           -1.5450     3.4473    -0.5059 C.3     
  24 Cl24           7.6175     5.5874     0.9815 Cl      
  25 C25           -5.6699    -0.9726     0.2378 C.ar    
  26 C26           -6.9536    -0.4696     0.1069 C.ar    
  27 C27           -7.2723     0.7696     0.6451 C.ar    
  28 C28           -6.3119     1.5063     1.3138 C.ar    
  29 C29           -5.0316     1.0121     1.4549 C.ar    
  30 O30           -7.9015    -1.1893    -0.5492 O.3     
  31 C31           -9.2042    -0.6099    -0.6467 C.3     
  32 C32          -10.1283    -1.5585    -1.4129 C.3     
  33 C33          -11.5515    -0.9970    -1.4098 C.3     
  34 C34           -9.6369    -1.6946    -2.8554 C.3     
  35 H35           -0.2938    -0.5846    -0.7627 H       
  36 H36            1.0240    -0.2004     0.3751 H       
  37 H37           -0.9349    -1.5041     1.3849 H       
  38 H38           -0.5308     0.0185     2.2200 H       
  39 H39           -3.5097     1.7040     0.5317 H       
  40 H40           -2.1918     2.0882     1.6696 H       
  41 H41           -1.9533     1.4865    -1.3088 H       
  42 H42            4.3758    -0.3972     1.0277 H       
  43 H43            5.1449     4.2295     0.5893 H       
  44 H44            9.1719     3.2955     1.6438 H       
  45 H45            8.5787     0.9134     1.8211 H       
  46 H46            6.2685     0.1828     1.3917 H       
  47 H47           -1.0490     3.8721     0.3668 H       
  48 H48           -1.0017     3.7318    -1.4070 H       
  49 H49           -2.5661     3.8244    -0.5630 H       
  50 H50           -5.4204    -1.9363    -0.1812 H       
  51 H51           -8.2740     1.1598     0.5410 H       
  52 H52           -6.5658     2.4700     1.7301 H       
  53 H53           -4.2840     1.5899     1.9780 H       
  54 H54           -9.6034    -0.4431     0.3538 H       
  55 H55           -9.1402     0.3410    -1.1756 H       
  56 H56          -10.1227    -2.5373    -0.9333 H       
  57 H57          -11.5571    -0.0182    -1.8894 H       
  58 H58          -12.2099    -1.6728    -1.9557 H       
  59 H59          -11.9016    -0.9001    -0.3821 H       
  60 H60           -9.6424    -0.7157    -3.3350 H       
  61 H61           -8.6229    -2.0945    -2.8577 H       
  62 H62          -10.2952    -2.3703    -3.4013 H       
@<TRIPOS>BOND
   1    1    2 1
   2    1    7 am
   3    1    6 1
   4    2    3 1
   5    2   35 1
   6    2   36 1
   7    3    4 1
   8    3   37 1
   9    3   38 1
  10    4    5 1
  11    4   15 am
  12    5    6 1
  13    5   39 1
  14    5   40 1
  15    6   23 1
  16    6   41 1
  17    7    8 1
  18    7   14 2
  19    8    9 2
  20    8   10 1
  21    9   12 1
  22   10   11 2
  23   11   12 1
  24   11   42 1
  25   12   13 1
  26   13   18 ar
  27   13   22 ar
  28   15   16 1
  29   15   17 2
  30   16   25 ar
  31   16   29 ar
  32   18   19 ar
  33   18   43 1
  34   19   20 ar
  35   19   24 1
  36   20   21 ar
  37   20   44 1
  38   21   22 ar
  39   21   45 1
  40   22   46 1
  41   23   47 1
  42   23   48 1
  43   23   49 1
  44   25   26 ar
  45   25   50 1
  46   26   27 ar
  47   26   30 1
  48   27   28 ar
  49   27   51 1
  50   28   29 ar
  51   28   52 1
  52   29   53 1
  53   30   31 1
  54   31   32 1
  55   31   54 1
  56   31   55 1
  57   32   33 1
  58   32   34 1
  59   32   56 1
  60   33   57 1
  61   33   58 1
  62   33   59 1
  63   34   60 1
  64   34   61 1
  65   34   62 1

#	End of record

