#	Name: ASD00960263
#	Creating user name:	WinNT
#	Creation time:	15. 06. 2019 18:53

#	Modifying user name:	WinNT
#	Modification time:	15. 06. 2019 18:53

#	Program:	/corina/corina34_cracker 3.40 0067  02.08.2006

@<TRIPOS>MOLECULE
ASD00960263
  34   36    0    0    0
SMALL
NO_CHARGES


@<TRIPOS>ATOM
   1 C1            -0.0167     1.3840     0.0097 C.2     
   2 C2             0.0021    -0.0041     0.0020 C.2     
   3 N3             1.2824     1.8109    -0.0005 N.pl3   
   4 C4             2.0982     0.7201     0.0003 C.2     
   5 C5             1.3475    -0.3953    -0.0055 C.2     
   6 N6             1.8017     3.1141     0.0034 N.2     
   7 C7             3.0693     3.2751    -0.2331 C.2     
   8 N8             3.8954     2.2112    -0.5245 N.pl3   
   9 C9             3.6029     0.8725     0.0184 C.3     
  10 N10            4.1027     0.7677     1.3958 N.3     
  11 Cl11          -1.3792    -1.0556     0.0027 Cl      
  12 C12           -1.2066     2.2332     0.0202 C.2     
  13 O13           -2.3138     1.7290     0.0234 O.2     
  14 O14           -1.0769     3.5762     0.0263 O.3     
  15 C15           -2.2818     4.3443     0.0365 C.3     
  16 C16           -1.9417     5.8124     0.0422 C.ar    
  17 C17           -1.7919     6.4918    -1.1523 C.ar    
  18 C18           -1.4798     7.8384    -1.1471 C.ar    
  19 C19           -1.3180     8.5058     0.0526 C.ar    
  20 C20           -1.4686     7.8266     1.2472 C.ar    
  21 C21           -1.7850     6.4809     1.2420 C.ar    
  22 H22            1.7154    -1.4107    -0.0147 H       
  23 H23            3.4869     4.2705    -0.2008 H       
  24 H24            4.6725     2.3439    -1.0896 H       
  25 H25            4.0634     0.1073    -0.6064 H       
  26 H26            5.1004     0.9146     1.4306 H       
  27 H27            3.6210     1.4116     2.0053 H       
  28 H28           -2.8691     4.1108    -0.8516 H       
  29 H29           -2.8598     4.1018     0.9283 H       
  30 H30           -1.9184     5.9704    -2.0896 H       
  31 H31           -1.3621     8.3691    -2.0803 H       
  32 H32           -1.0734     9.5577     0.0567 H       
  33 H33           -1.3418     8.3479     2.1845 H       
  34 H34           -1.9064     5.9511     2.1752 H       
@<TRIPOS>BOND
   1    1    2 2
   2    1    3 1
   3    1   12 1
   4    2   11 1
   5    2    5 1
   6    3    4 1
   7    3    6 1
   8    4    5 2
   9    4    9 1
  10    5   22 1
  11    6    7 2
  12    7    8 1
  13    7   23 1
  14    8    9 1
  15    8   24 1
  16    9   10 1
  17    9   25 1
  18   10   26 1
  19   10   27 1
  20   12   13 2
  21   12   14 1
  22   14   15 1
  23   15   16 1
  24   15   28 1
  25   15   29 1
  26   16   17 ar
  27   16   21 ar
  28   17   18 ar
  29   17   30 1
  30   18   19 ar
  31   18   31 1
  32   19   20 ar
  33   19   32 1
  34   20   21 ar
  35   20   33 1
  36   21   34 1

#	End of record

