#	Name: ASD09890068
#	Creating user name:	WinNT
#	Creation time:	15. 06. 2019 21:24

#	Modifying user name:	WinNT
#	Modification time:	15. 06. 2019 21:24

#	Program:	/corina/corina34_cracker 3.40 0067  02.08.2006

@<TRIPOS>MOLECULE
ASD09890068
  42   45    0    0    0
SMALL
NO_CHARGES


@<TRIPOS>ATOM
   1 C1            -0.0175     1.3677     0.0710 C.2     
   2 N2            -0.0061     0.0003     0.0430 N.pl3   
   3 C3            -1.3000    -0.4340     0.1342 C.2     
   4 N4            -2.0753     0.6208     0.2151 N.2     
   5 N5            -1.2612     1.7604     0.1801 N.2     
   6 S6            -1.8314    -2.1140     0.1413 S.3     
   7 C7            -3.6341    -1.9711     0.2836 C.3     
   8 C8             1.1319    -0.8133    -0.0615 C.ar    
   9 C9             2.0822    -0.8319     0.9552 C.ar    
  10 C10            3.1892    -1.6520     0.8066 C.ar    
  11 C11            3.3126    -2.4187    -0.3368 C.ar    
  12 N12            2.3938    -2.3781    -1.2821 N.ar    
  13 C13            1.3236    -1.6160    -1.1778 C.ar    
  14 C14           -4.2830    -3.3625     0.1792 C.3     
  15 C15           -5.0325    -3.5999     1.5065 C.3     
  16 C16           -5.3057    -2.1749     2.0486 C.3     
  17 C17           -4.0120    -1.4116     1.6707 C.3     
  18 O18            1.0702     2.1752     0.0035 O.3     
  19 C19            0.8650     3.5153    -0.0919 C.ar    
  20 C20           -0.4169     4.0102    -0.2837 C.ar    
  21 C21            1.9370     4.3919     0.0080 C.ar    
  22 C22            1.7249     5.7546    -0.0895 C.ar    
  23 C23            0.4469     6.2438    -0.2864 C.ar    
  24 C24           -0.6229     5.3727    -0.3805 C.ar    
  25 Cl25           3.5417     3.7777     0.2558 Cl      
  26 H26           -4.0198    -1.3195    -0.5004 H       
  27 H27            1.9601    -0.2218     1.8379 H       
  28 H28            3.9468    -1.6915     1.5752 H       
  29 H29            4.1735    -3.0595    -0.4580 H       
  30 H30            0.5925    -1.6095    -1.9727 H       
  31 H31           -4.9842    -3.3858    -0.6549 H       
  32 H32           -3.5146    -4.1235     0.0431 H       
  33 H33           -5.9701    -4.1258     1.3263 H       
  34 H34           -4.4078    -4.1596     2.2026 H       
  35 H35           -6.1723    -1.7338     1.5561 H       
  36 H36           -5.4420    -2.1925     3.1299 H       
  37 H37           -3.2225    -1.6179     2.3933 H       
  38 H38           -4.2049    -0.3405     1.6103 H       
  39 H39           -1.2531     3.3306    -0.3577 H       
  40 H40            2.5581     6.4373    -0.0116 H       
  41 H41            0.2832     7.3087    -0.3623 H       
  42 H42           -1.6201     5.7578    -0.5346 H       
@<TRIPOS>BOND
   1    1    2 1
   2    1   18 1
   3    1    5 2
   4    2    3 1
   5    2    8 1
   6    3    4 2
   7    3    6 1
   8    4    5 1
   9    6    7 1
  10    7   14 1
  11    7   17 1
  12    7   26 1
  13    8    9 ar
  14    8   13 ar
  15    9   10 ar
  16    9   27 1
  17   10   11 ar
  18   10   28 1
  19   11   12 ar
  20   11   29 1
  21   12   13 ar
  22   13   30 1
  23   14   15 1
  24   14   31 1
  25   14   32 1
  26   15   16 1
  27   15   33 1
  28   15   34 1
  29   16   17 1
  30   16   35 1
  31   16   36 1
  32   17   37 1
  33   17   38 1
  34   18   19 1
  35   19   20 ar
  36   19   21 ar
  37   20   24 ar
  38   20   39 1
  39   21   22 ar
  40   21   25 1
  41   22   23 ar
  42   22   40 1
  43   23   24 ar
  44   23   41 1
  45   24   42 1

#	End of record

