#	Name: ASD01917840
#	Creating user name:	WinNT
#	Creation time:	15. 06. 2019 20:10

#	Modifying user name:	WinNT
#	Modification time:	15. 06. 2019 20:10

#	Program:	/corina/corina34_cracker 3.40 0067  02.08.2006

@<TRIPOS>MOLECULE
ASD01917840
  44   47    0    0    0
SMALL
NO_CHARGES


@<TRIPOS>ATOM
   1 C1            -0.0137     1.3190    -0.0042 C.2     
   2 C2            -0.0103    -0.0279     0.0050 C.2     
   3 C3            -1.2498    -0.8860     0.0244 C.3     
   4 C4            -2.4380    -0.0295     0.4797 C.3     
   5 N5            -2.4045     1.2579    -0.2303 N.am    
   6 C6            -1.2653     2.1613     0.0139 C.3     
   7 C7            -3.3897     1.6029    -1.0828 C.2     
   8 O8            -4.2641     0.8042    -1.3563 O.2     
   9 O9             1.2628     1.7241    -0.0256 O.3     
  10 C10            2.0355     0.6263    -0.0258 C.2     
  11 N11            1.2679    -0.4290    -0.0070 N.2     
  12 C12            3.5423     0.6145    -0.0452 C.3     
  13 O13            4.0012     0.5994    -1.3984 O.3     
  14 C14            5.3460     0.5873    -1.5938 C.ar    
  15 C15            5.8606     0.5723    -2.8820 C.ar    
  16 C16            7.2281     0.5600    -3.0795 C.ar    
  17 C17            8.0847     0.5626    -1.9949 C.ar    
  18 C18            7.5744     0.5771    -0.7071 C.ar    
  19 C19            6.2059     0.5957    -0.5054 C.ar    
  20 C20           -3.4069     2.9532    -1.6853 C.ar    
  21 C21           -3.8644     3.1298    -2.9927 C.ar    
  22 C22           -3.8811     4.3923    -3.5578 C.ar    
  23 C23           -3.4455     5.4859    -2.8326 C.ar    
  24 C24           -2.9861     5.3211    -1.5235 C.ar    
  25 C25           -2.9721     4.0522    -0.9475 C.ar    
  26 F26           -4.3244     4.5572    -4.8233 F       
  27 F27            8.4134     0.5787     0.3518 F       
  28 C28           -2.5347     6.4544    -0.7735 C.1     
  29 N29           -2.1767     7.3535    -0.1785 N.1     
  30 H30           -1.4413    -1.2737    -0.9762 H       
  31 H31           -1.1096    -1.7146     0.7185 H       
  32 H32           -3.3693    -0.5476     0.2511 H       
  33 H33           -2.3710     0.1448     1.5536 H       
  34 H34           -1.3747     2.6418     0.9861 H       
  35 H35           -1.2160     2.9165    -0.7706 H       
  36 H36            3.9191     1.5059     0.4563 H       
  37 H37            3.9053    -0.2740     0.4715 H       
  38 H38            5.1923     0.5699    -3.7304 H       
  39 H39            7.6281     0.5480    -4.0826 H       
  40 H40            9.1532     0.5530    -2.1515 H       
  41 H41            5.8075     0.6074     0.4983 H       
  42 H42           -4.2055     2.2791    -3.5639 H       
  43 H43           -3.4601     6.4693    -3.2791 H       
  44 H44           -2.6181     3.9200     0.0643 H       
@<TRIPOS>BOND
   1    1    2 2
   2    1    9 1
   3    1    6 1
   4    2    3 1
   5    2   11 1
   6    3    4 1
   7    3   30 1
   8    3   31 1
   9    4    5 1
  10    4   32 1
  11    4   33 1
  12    5    6 1
  13    5    7 am
  14    6   34 1
  15    6   35 1
  16    7    8 2
  17    7   20 1
  18    9   10 1
  19   10   11 2
  20   10   12 1
  21   12   13 1
  22   12   36 1
  23   12   37 1
  24   13   14 1
  25   14   15 ar
  26   14   19 ar
  27   15   16 ar
  28   15   38 1
  29   16   17 ar
  30   16   39 1
  31   17   18 ar
  32   17   40 1
  33   18   19 ar
  34   18   27 1
  35   19   41 1
  36   20   21 ar
  37   20   25 ar
  38   21   22 ar
  39   21   42 1
  40   22   23 ar
  41   22   26 1
  42   23   24 ar
  43   23   43 1
  44   24   28 1
  45   24   25 ar
  46   25   44 1
  47   28   29 3

#	End of record

