#	Name: ASD03331861
#	Creating user name:	WinNT
#	Creation time:	15. 06. 2019 20:40

#	Modifying user name:	WinNT
#	Modification time:	15. 06. 2019 20:40

#	Program:	/corina/corina34_cracker 3.40 0067  02.08.2006

@<TRIPOS>MOLECULE
ASD03331861
  44   46    0    0    0
SMALL
NO_CHARGES


@<TRIPOS>ATOM
   1 C1             8.3975    -0.3476     1.1482 C.ar    
   2 C2             8.8959     0.0863     2.3635 C.ar    
   3 C3             8.3567     1.2032     2.9762 C.ar    
   4 C4             7.3187     1.8884     2.3758 C.ar    
   5 C5             6.8163     1.4551     1.1558 C.ar    
   6 C6             7.3596     0.3336     0.5431 C.ar    
   7 N7             5.7642     2.1471     0.5452 N.am    
   8 C8             5.6913     3.4891     0.6470 C.2     
   9 N9             4.7315     4.1641    -0.0159 N.am    
  10 O10            6.4915     4.0907     1.3370 O.2     
  11 C11            4.5952     5.5452     0.1650 C.ar    
  12 C12            3.1942     7.4890     0.3383 C.ar    
  13 C13            3.3330     6.1254     0.1599 C.ar    
  14 C14            5.7198     6.3341     0.3550 C.ar    
  15 C15            5.5792     7.7077     0.5351 C.ar    
  16 C16            4.3088     8.2820     0.5232 C.ar    
  17 C17            6.7776     8.5575     0.7394 C.ar    
  18 N18            7.9770     7.9924     0.7478 N.ar    
  19 C19            9.0698     8.7179     0.9268 C.ar    
  20 C20            8.9532    10.0833     1.1070 C.ar    
  21 C21            7.6766    10.6508     1.0933 C.ar    
  22 N22            6.6233     9.8638     0.9035 N.ar    
  23 N23            7.5119    12.0150     1.2703 N.pl3   
  24 C24            8.6844    12.8883     1.3641 C.3     
  25 C25            6.1653    12.5843     1.3638 C.3     
  26 I26           10.4700    -0.9504     3.2782 I       
  27 H27            8.8234    -1.2173     0.6700 H       
  28 H28            8.7476     1.5395     3.9252 H       
  29 H29            6.8979     2.7601     2.8547 H       
  30 H30            6.9712    -0.0055    -0.4059 H       
  31 H31            5.0874     1.6610     0.0487 H       
  32 H32            4.1351     3.6927    -0.6184 H       
  33 H33            2.2108     7.9354     0.3329 H       
  34 H34            2.4577     5.5093     0.0159 H       
  35 H35            6.7017     5.8844     0.3637 H       
  36 H36            4.1965     9.3471     0.6623 H       
  37 H37           10.0421     8.2478     0.9323 H       
  38 H38            9.8290    10.6976     1.2553 H       
  39 H39            8.9596    13.2353     0.3681 H       
  40 H40            8.4496    13.7453     1.9954 H       
  41 H41            9.5164    12.3341     1.7985 H       
  42 H42            5.4270    11.7876     1.2731 H       
  43 H43            6.0470    13.0815     2.3265 H       
  44 H44            6.0200    13.3073     0.5611 H       
@<TRIPOS>BOND
   1    1    2 ar
   2    1    6 ar
   3    1   27 1
   4    2    3 ar
   5    2   26 1
   6    3    4 ar
   7    3   28 1
   8    4    5 ar
   9    4   29 1
  10    5    6 ar
  11    5    7 1
  12    6   30 1
  13    7    8 am
  14    7   31 1
  15    8    9 am
  16    8   10 2
  17    9   11 1
  18    9   32 1
  19   11   14 ar
  20   11   13 ar
  21   12   13 ar
  22   12   16 ar
  23   12   33 1
  24   13   34 1
  25   14   15 ar
  26   14   35 1
  27   15   16 ar
  28   15   17 1
  29   16   36 1
  30   17   18 ar
  31   17   22 ar
  32   18   19 ar
  33   19   20 ar
  34   19   37 1
  35   20   21 ar
  36   20   38 1
  37   21   22 ar
  38   21   23 1
  39   23   24 1
  40   23   25 1
  41   24   39 1
  42   24   40 1
  43   24   41 1
  44   25   42 1
  45   25   43 1
  46   25   44 1

#	End of record

