#	Name: ASD02560425
#	Creating user name:	WinNT
#	Creation time:	15. 06. 2019 20:25

#	Modifying user name:	WinNT
#	Modification time:	15. 06. 2019 20:25

#	Program:	/corina/corina34_cracker 3.40 0067  02.08.2006

@<TRIPOS>MOLECULE
ASD02560425
  51   56    0    0    0
SMALL
NO_CHARGES


@<TRIPOS>ATOM
   1 C1             0.0501     1.3991     0.7103 C.2     
   2 C2             0.0585    -0.0052     0.6379 C.2     
   3 C3             1.2136    -0.6699     0.4345 C.2     
   4 N4             2.3937     0.0101     0.2952 N.pl3   
   5 C5             2.4165     1.3846     0.3611 C.2     
   6 C6             1.2133     2.0898     0.5740 C.2     
   7 C7             3.6782    -0.4092     0.0852 C.2     
   8 C8             4.4639     0.7250     0.0267 C.2     
   9 N9             3.6641     1.7944     0.1982 N.2     
  10 C10            5.9255     0.7589    -0.1861 C.2     
  11 N11            4.1117    -1.7297    -0.0451 N.3     
  12 C12            2.9881    -2.6675     0.0802 C.3     
  13 C13            3.5025    -4.1015    -0.0604 C.3     
  14 S14            6.9515    -0.6512    -0.4151 S.3     
  15 C15            2.3294    -2.4941     1.4503 C.3     
  16 C16            1.1590    -3.4709     1.5808 C.3     
  17 C17            1.6735    -4.9049     1.4401 C.3     
  18 C18            2.3322    -5.0783     0.0701 C.3     
  19 C19            0.1329    -3.1871     0.4820 C.3     
  20 C20            1.3060    -4.7945    -1.0287 C.3     
  21 C21            0.7916    -3.3605    -0.8881 C.3     
  22 C22            1.9619    -2.3837    -1.0186 C.3     
  23 C23            6.6788     1.8760    -0.2407 C.2     
  24 C24            8.0257     1.6530    -0.4495 C.2     
  25 C25            8.3750     0.3700    -0.5675 C.2     
  26 C26            6.0973     3.2577    -0.0865 C.3     
  27 H27           -0.8782     1.9277     0.8693 H       
  28 H28           -0.8653    -0.5541     0.7461 H       
  29 H29            1.2081    -1.7486     0.3814 H       
  30 H30            1.2161     3.1685     0.6283 H       
  31 H31            4.6005    -1.8654    -0.9173 H       
  32 H32            3.9718    -4.2251    -1.0365 H       
  33 H33            4.2335    -4.3037     0.7224 H       
  34 H34            3.0604    -2.6962     2.2331 H       
  35 H35            1.9629    -1.4724     1.5505 H       
  36 H36            0.6898    -3.3473     2.5568 H       
  37 H37            2.4045    -5.1071     2.2229 H       
  38 H38            0.8397    -5.6008     1.5331 H       
  39 H39            2.6987    -6.1000    -0.0301 H       
  40 H40           -0.7009    -3.8830     0.5749 H       
  41 H41           -0.2336    -2.1654     0.5822 H       
  42 H42            1.7753    -4.9181    -2.0048 H       
  43 H43            0.4723    -5.4904    -0.9357 H       
  44 H44            0.0605    -3.1583    -1.6709 H       
  45 H45            1.5954    -1.3621    -0.9184 H       
  46 H46            2.4312    -2.5073    -1.9946 H       
  47 H47            8.7432     2.4576    -0.5149 H       
  48 H48            9.3806     0.0128    -0.7334 H       
  49 H49            6.1058     3.5402     0.9662 H       
  50 H50            6.6936     3.9688    -0.6583 H       
  51 H51            5.0718     3.2636    -0.4560 H       
@<TRIPOS>BOND
   1    1    2 1
   2    1    6 2
   3    1   27 1
   4    2    3 2
   5    2   28 1
   6    3    4 1
   7    3   29 1
   8    4    5 1
   9    4    7 1
  10    5    6 1
  11    5    9 2
  12    6   30 1
  13    7    8 2
  14    7   11 1
  15    8    9 1
  16    8   10 1
  17   10   23 2
  18   10   14 1
  19   11   12 1
  20   11   31 1
  21   12   13 1
  22   12   15 1
  23   12   22 1
  24   13   18 1
  25   13   32 1
  26   13   33 1
  27   14   25 1
  28   15   16 1
  29   15   34 1
  30   15   35 1
  31   16   17 1
  32   16   19 1
  33   16   36 1
  34   17   18 1
  35   17   37 1
  36   17   38 1
  37   18   20 1
  38   18   39 1
  39   19   21 1
  40   19   40 1
  41   19   41 1
  42   20   21 1
  43   20   42 1
  44   20   43 1
  45   21   22 1
  46   21   44 1
  47   22   45 1
  48   22   46 1
  49   23   24 1
  50   23   26 1
  51   24   25 2
  52   24   47 1
  53   25   48 1
  54   26   49 1
  55   26   50 1
  56   26   51 1

#	End of record

