#	Name: ASD03430172
#	Creating user name:	WinNT
#	Creation time:	15. 06. 2019 20:40

#	Modifying user name:	WinNT
#	Modification time:	15. 06. 2019 20:40

#	Program:	/corina/corina34_cracker 3.40 0067  02.08.2006

@<TRIPOS>MOLECULE
ASD03430172
  54   59    0    0    0
SMALL
NO_CHARGES


@<TRIPOS>ATOM
   1 C1            -0.0556     0.8366     1.5535 C.ar    
   2 C2            -0.0522    -0.5083     1.2564 C.ar    
   3 C3             1.1394    -1.1994     1.1895 C.ar    
   4 C4             2.3458    -0.5466     1.4296 C.ar    
   5 C5             2.3345     0.8128     1.7184 C.ar    
   6 C6             1.1366     1.5146     1.7796 C.ar    
   7 O7             3.3974    -1.4103     1.3473 O.3     
   8 C8             1.4797    -2.6312     0.8761 C.3     
   9 C9             2.9926    -2.5852     0.6193 C.3     
  10 C10            0.2647    -4.5050     1.4538 C.ar    
  11 C11            1.1320    -3.5620     2.0000 C.ar    
  12 C12            0.7277    -3.1487    -0.3161 C.2     
  13 N13            0.0497    -4.2369     0.1001 N.am    
  14 O14            0.7299    -2.6795    -1.4345 O.2     
  15 C15            1.4906    -3.6265     3.3275 C.ar    
  16 C16            0.9898    -4.6342     4.1331 C.ar    
  17 C17            0.1277    -5.5755     3.6016 C.ar    
  18 C18           -0.2350    -5.5152     2.2720 C.ar    
  19 C19           -0.8120    -5.0447    -0.7667 C.3     
  20 C20           -1.1777     1.8433     1.7140 C.3     
  21 C21           -0.4587     3.0130     2.4271 C.3     
  22 O22            0.9110     2.8349     2.0282 O.3     
  23 C23           -2.2171    -4.5014    -0.7252 C.2     
  24 N24           -3.1888    -5.0897    -1.4505 N.am    
  25 O25           -2.4734    -3.5346    -0.0391 O.2     
  26 C26           -4.5125    -4.6521    -1.3321 C.ar    
  27 C27           -5.4693    -5.4773    -0.7559 C.ar    
  28 C28           -6.7750    -5.0422    -0.6400 C.ar    
  29 C29           -7.1301    -3.7865    -1.0975 C.ar    
  30 C30           -6.1797    -2.9624    -1.6718 C.ar    
  31 C31           -4.8711    -3.3893    -1.7853 C.ar    
  32 C32           -2.8590    -6.1875    -2.3629 C.3     
  33 H33           -0.9845    -1.0227     1.0759 H       
  34 H34            3.2661     1.3289     1.8978 H       
  35 H35            3.2013    -2.4722    -0.4446 H       
  36 H36            3.4801    -3.4748     1.0181 H       
  37 H37            2.1637    -2.8900     3.7407 H       
  38 H38            1.2721    -4.6854     5.1743 H       
  39 H39           -0.2632    -6.3619     4.2303 H       
  40 H40           -0.9087    -6.2542     1.8640 H       
  41 H41           -0.4374    -5.0056    -1.7895 H       
  42 H42           -0.8115    -6.0776    -0.4187 H       
  43 H43           -1.5621     2.1562     0.7433 H       
  44 H44           -1.9767     1.4400     2.3362 H       
  45 H45           -0.8412     3.9720     2.0775 H       
  46 H46           -0.5603     2.9268     3.5089 H       
  47 H47           -5.1928    -6.4585    -0.3990 H       
  48 H48           -7.5196    -5.6835    -0.1920 H       
  49 H49           -8.1519    -3.4488    -1.0064 H       
  50 H50           -6.4601    -1.9822    -2.0281 H       
  51 H51           -4.1293    -2.7452    -2.2339 H       
  52 H52           -2.9332    -7.1363    -1.8314 H       
  53 H53           -3.5559    -6.1851    -3.2010 H       
  54 H54           -1.8427    -6.0579    -2.7349 H       
@<TRIPOS>BOND
   1    1    2 ar
   2    1    6 ar
   3    1   20 1
   4    2    3 ar
   5    2   33 1
   6    3    4 ar
   7    3    8 1
   8    4    5 ar
   9    4    7 1
  10    5    6 ar
  11    5   34 1
  12    6   22 1
  13    7    9 1
  14    8    9 1
  15    8   11 1
  16    8   12 1
  17    9   35 1
  18    9   36 1
  19   10   11 ar
  20   10   13 1
  21   10   18 ar
  22   11   15 ar
  23   12   13 am
  24   12   14 2
  25   13   19 1
  26   15   16 ar
  27   15   37 1
  28   16   17 ar
  29   16   38 1
  30   17   18 ar
  31   17   39 1
  32   18   40 1
  33   19   23 1
  34   19   41 1
  35   19   42 1
  36   20   21 1
  37   20   43 1
  38   20   44 1
  39   21   22 1
  40   21   45 1
  41   21   46 1
  42   23   24 am
  43   23   25 2
  44   24   26 1
  45   24   32 1
  46   26   27 ar
  47   26   31 ar
  48   27   28 ar
  49   27   47 1
  50   28   29 ar
  51   28   48 1
  52   29   30 ar
  53   29   49 1
  54   30   31 ar
  55   30   50 1
  56   31   51 1
  57   32   52 1
  58   32   53 1
  59   32   54 1

#	End of record

