#	Name: ASD03430867
#	Creating user name:	WinNT
#	Creation time:	15. 06. 2019 20:41

#	Modifying user name:	WinNT
#	Modification time:	15. 06. 2019 20:41

#	Program:	/corina/corina34_cracker 3.40 0067  02.08.2006

@<TRIPOS>MOLECULE
ASD03430867
  33   36    0    0    0
SMALL
NO_CHARGES


@<TRIPOS>ATOM
   1 C1            -0.0167     1.3837     0.0096 C.ar    
   2 C2             0.0021    -0.0041     0.0020 C.ar    
   3 C3             1.1701     2.0957     0.0021 C.ar    
   4 C4             2.3897     1.4265    -0.0140 C.ar    
   5 C5             2.3948     0.0341    -0.0127 C.ar    
   6 C6             1.2114    -0.6728    -0.0089 C.ar    
   7 O7             3.6575     1.9252    -0.0448 O.3     
   8 C8             3.8393    -0.3889    -0.0042 C.3     
   9 C9             4.5818     0.9011     0.3701 C.3     
  10 N10            4.6306    -2.5146     0.2775 N.am    
  11 C11            4.1039    -1.4918     0.9800 C.2     
  12 C12            4.2841    -0.9257    -1.3324 C.ar    
  13 C13            4.3032    -0.4102    -2.6087 C.ar    
  14 C14            4.7891    -1.1720    -3.6569 C.ar    
  15 C15            5.2551    -2.4518    -3.4190 C.ar    
  16 C16            5.2377    -2.9733    -2.1418 C.ar    
  17 C17            4.7502    -2.2141    -1.0814 C.ar    
  18 O18            3.8869    -1.4669     2.1730 O.2     
  19 O19           -1.2038     2.0453     0.0189 O.3     
  20 C20           -2.3903     1.2489     0.0202 C.3     
  21 H21           -0.9245    -0.5590     0.0050 H       
  22 H22            1.1493     3.1755     0.0085 H       
  23 H23            1.2293    -1.7526    -0.0146 H       
  24 H24            5.5200     0.9810    -0.1790 H       
  25 H25            4.7560     0.9494     1.4450 H       
  26 H26            4.8961    -3.3609     0.6702 H       
  27 H27            3.9383     0.5896    -2.7922 H       
  28 H28            4.8040    -0.7679    -4.6583 H       
  29 H29            5.6342    -3.0463    -4.2371 H       
  30 H30            5.6030    -3.9740    -1.9641 H       
  31 H31           -3.2647     1.8997     0.0278 H       
  32 H32           -2.4099     0.6246    -0.8731 H       
  33 H33           -2.4014     0.6149     0.9068 H       
@<TRIPOS>BOND
   1    1    2 ar
   2    1    3 ar
   3    1   19 1
   4    2    6 ar
   5    2   21 1
   6    3    4 ar
   7    3   22 1
   8    4    5 ar
   9    4    7 1
  10    5    6 ar
  11    5    8 1
  12    6   23 1
  13    7    9 1
  14    8    9 1
  15    8   11 1
  16    8   12 1
  17    9   24 1
  18    9   25 1
  19   10   11 am
  20   10   17 1
  21   10   26 1
  22   11   18 2
  23   12   13 ar
  24   12   17 ar
  25   13   14 ar
  26   13   27 1
  27   14   15 ar
  28   14   28 1
  29   15   16 ar
  30   15   29 1
  31   16   17 ar
  32   16   30 1
  33   19   20 1
  34   20   31 1
  35   20   32 1
  36   20   33 1

#	End of record

