#	Name: ASD09740648
#	Creating user name:	WinNT
#	Creation time:	15. 06. 2019 21:23

#	Modifying user name:	WinNT
#	Modification time:	15. 06. 2019 21:23

#	Program:	/corina/corina34_cracker 3.40 0067  02.08.2006

@<TRIPOS>MOLECULE
ASD09740648
  20   21    0    0    0
SMALL
NO_CHARGES


@<TRIPOS>ATOM
   1 C1             0.0021    -0.0041     0.0020 C.1     
   2 C2            -0.0173     1.4278     0.0099 C.ar    
   3 C3             1.1841     2.1462     0.0023 C.ar    
   4 C4             1.1646     3.5296     0.0099 C.ar    
   5 C5            -0.0366     4.2085     0.0256 C.ar    
   6 C6            -1.2424     3.5031     0.0338 C.ar    
   7 C7            -1.2328     2.1105     0.0194 C.ar    
   8 N8             0.0175    -1.1399    -0.0042 N.1     
   9 F9             2.3638     1.4881    -0.0121 F       
  10 S10           -2.7254     5.9877     0.0630 S.3     
  11 C11           -2.5274     4.2342     0.0510 C.2     
  12 N12           -3.7147     3.6985     0.0595 N.2     
  13 N13           -4.7084     4.4748     0.0737 N.2     
  14 C14           -4.4750     5.7573     0.0788 C.2     
  15 N15           -5.4304     6.7609     0.0935 N.pl3   
  16 H16            2.0936     4.0805     0.0040 H       
  17 H17           -0.0446     5.2885     0.0318 H       
  18 H18           -2.1629     1.5617     0.0207 H       
  19 H19           -5.1565     7.6914     0.0959 H       
  20 H20           -6.3732     6.5329     0.1014 H       
@<TRIPOS>BOND
   1    1    2 1
   2    1    8 3
   3    2    3 ar
   4    2    7 ar
   5    3    4 ar
   6    3    9 1
   7    4    5 ar
   8    4   16 1
   9    5    6 ar
  10    5   17 1
  11    6    7 ar
  12    6   11 1
  13    7   18 1
  14   10   11 1
  15   10   14 1
  16   11   12 2
  17   12   13 1
  18   13   14 2
  19   14   15 1
  20   15   19 1
  21   15   20 1

#	End of record

