#	Name: ASD01917592
#	Creating user name:	WinNT
#	Creation time:	15. 06. 2019 20:09

#	Modifying user name:	WinNT
#	Modification time:	15. 06. 2019 20:09

#	Program:	/corina/corina34_cracker 3.40 0067  02.08.2006

@<TRIPOS>MOLECULE
ASD01917592
  27   27    0    0    0
SMALL
NO_CHARGES


@<TRIPOS>ATOM
   1 C1            -0.0187     1.5036     0.0216 C.2     
   2 C2             0.0003    -0.0032    -0.0001 C.3     
   3 C3            -1.4352    -0.5318     0.0275 C.3     
   4 N4             1.1395     2.1925     0.0030 N.am    
   5 S5            -1.4132     2.2850     0.0601 S.2     
   6 C6             0.6972    -0.4861    -1.2738 C.3     
   7 C7             0.7583    -0.5213     1.2237 C.3     
   8 C8             1.1220     3.5823    -0.0946 C.ar    
   9 C9             2.3122     4.2948     0.0032 C.ar    
  10 C10            2.2808     5.6743    -0.0953 C.ar    
  11 C11            1.0544     6.2969    -0.2892 C.ar    
  12 C12           -0.0886     5.5264    -0.3772 C.ar    
  13 N13           -0.0268     4.2117    -0.2849 N.ar    
  14 I14            0.9394     8.3829    -0.4459 I       
  15 H15           -1.9752    -0.1626    -0.8444 H       
  16 H16           -1.4214    -1.6216     0.0118 H       
  17 H17           -1.9316    -0.1878     0.9349 H       
  18 H18            1.9854     1.7207     0.0575 H       
  19 H19            1.7199    -0.1095    -1.2935 H       
  20 H20            0.7110    -1.5759    -1.2895 H       
  21 H21            0.1572    -0.1169    -2.1457 H       
  22 H22            0.2619    -0.1773     2.1311 H       
  23 H23            0.7721    -1.6111     1.2080 H       
  24 H24            1.7810    -0.1447     1.2040 H       
  25 H25            3.2485     3.7781     0.1544 H       
  26 H26            3.1891     6.2540    -0.0228 H       
  27 H27           -1.0445     6.0059    -0.5279 H       
@<TRIPOS>BOND
   1    1    2 1
   2    1    4 am
   3    1    5 2
   4    2    3 1
   5    2    6 1
   6    2    7 1
   7    3   15 1
   8    3   16 1
   9    3   17 1
  10    4    8 1
  11    4   18 1
  12    6   19 1
  13    6   20 1
  14    6   21 1
  15    7   22 1
  16    7   23 1
  17    7   24 1
  18    8    9 ar
  19    8   13 ar
  20    9   10 ar
  21    9   25 1
  22   10   11 ar
  23   10   26 1
  24   11   12 ar
  25   11   14 1
  26   12   13 ar
  27   12   27 1

#	End of record

