#	Name: ASD03731164
#	Creating user name:	WinNT
#	Creation time:	15. 06. 2019 20:45

#	Modifying user name:	WinNT
#	Modification time:	15. 06. 2019 20:45

#	Program:	/corina/corina34_cracker 3.40 0067  02.08.2006

@<TRIPOS>MOLECULE
ASD03731164
  69   76    0    0    0
SMALL
NO_CHARGES


@<TRIPOS>ATOM
   1 N1            -0.0162     1.3436     0.0094 N.am    
   2 C2            -0.1286     0.0005     0.0204 C.2     
   3 O3             0.8651    -0.6935    -0.0759 O.2     
   4 N4            -1.3424    -0.5732     0.1381 N.am    
   5 C5            -1.4645    -2.0331     0.1501 C.3     
   6 C6            -2.9378    -2.4205     0.2930 C.3     
   7 O7             1.5527    -7.7671     2.0075 O.3     
   8 C8             1.8619    -9.1571     2.2210 C.3     
   9 O9             0.6792    -9.6772     2.8563 O.3     
  10 C10           -0.3456    -8.8828     2.4278 C.ar    
  11 C11            0.1921    -7.7081     1.9069 C.ar    
  12 C12           -1.7161    -9.0706     2.4393 C.ar    
  13 C13           -2.5662    -8.0912     1.9346 C.ar    
  14 C14           -2.0177    -6.9184     1.4245 C.ar    
  15 C15           -0.6513    -6.7308     1.4060 C.ar    
  16 O16           -3.9266    -8.0836     1.8366 O.3     
  17 C17           -3.1737    -6.0583     0.9888 C.3     
  18 C18           -4.3824    -6.7291     1.6555 C.3     
  19 N19           -3.0599    -3.8803     0.3049 N.am    
  20 C20           -3.0151    -4.6300     1.4242 C.2     
  21 C21           -3.3155    -6.0058    -0.5035 C.ar    
  22 C22           -3.4902    -6.9640    -1.4769 C.ar    
  23 C23           -3.5908    -6.5917    -2.8056 C.ar    
  24 C24           -3.5148    -5.2553    -3.1536 C.ar    
  25 C25           -3.3389    -4.2919    -2.1824 C.ar    
  26 C26           -3.2371    -4.6574    -0.8424 C.ar    
  27 O27           -2.8748    -4.2295     2.5604 O.2     
  28 C28            1.2476     1.9387     0.0008 C.ar    
  29 C29            1.4513     3.1243    -0.6964 C.ar    
  30 C30            2.6964     3.7138    -0.7069 C.ar    
  31 C31            3.7544     3.1195    -0.0159 C.ar    
  32 C32            3.5464     1.9290     0.6836 C.ar    
  33 C33            2.2977     1.3471     0.6941 C.ar    
  34 S34            6.5074     3.1108     0.7986 S.3     
  35 C35            5.0913     3.7487    -0.0255 C.2     
  36 N36            5.3859     4.8448    -0.6403 N.2     
  37 C37            6.6502     5.2938    -0.5563 C.ar    
  38 C38            7.4724     4.4645     0.2157 C.ar    
  39 C39            7.2178     6.4518    -1.1316 C.ar    
  40 C40            8.5321     6.7483    -0.9362 C.ar    
  41 C41            9.3403     5.9211    -0.1696 C.ar    
  42 C42            8.8151     4.7851     0.4048 C.ar    
  43 C43           10.7930     6.2661     0.0347 C.3     
  44 H44           -0.8129     1.8969     0.0035 H       
  45 H45           -2.1352    -0.0196     0.2150 H       
  46 H46           -1.0711    -2.4382    -0.7822 H       
  47 H47           -0.8993    -2.4381     0.9894 H       
  48 H48           -3.3312    -2.0153     1.2252 H       
  49 H49           -3.5030    -2.0154    -0.5464 H       
  50 H50            2.0389    -9.6604     1.2705 H       
  51 H51            2.7261    -9.2607     2.8771 H       
  52 H52           -2.1291    -9.9833     2.8427 H       
  53 H53           -0.2383    -5.8192     1.0001 H       
  54 H54           -5.2528    -6.6979     1.0001 H       
  55 H55           -4.6027    -6.2631     2.6159 H       
  56 H56           -3.5491    -8.0070    -1.2029 H       
  57 H57           -3.7287    -7.3429    -3.5693 H       
  58 H58           -3.5932    -4.9648    -4.1909 H       
  59 H59           -3.2800    -3.2504    -2.4620 H       
  60 H60            0.6326     3.5835    -1.2305 H       
  61 H61            2.8542     4.6344    -1.2491 H       
  62 H62            4.3626     1.4668     1.2190 H       
  63 H63            2.1351     0.4286     1.2384 H       
  64 H64            6.6044     7.1075    -1.7317 H       
  65 H65            8.9507     7.6377    -1.3835 H       
  66 H66            9.4447     4.1416     1.0015 H       
  67 H67           10.8973     6.8875     0.9241 H       
  68 H68           11.3696     5.3499     0.1620 H       
  69 H69           11.1629     6.8103    -0.8343 H       
@<TRIPOS>BOND
   1    1    2 am
   2    1   28 1
   3    1   44 1
   4    2    3 2
   5    2    4 am
   6    4    5 1
   7    4   45 1
   8    5    6 1
   9    5   46 1
  10    5   47 1
  11    6   19 1
  12    6   48 1
  13    6   49 1
  14    7    8 1
  15    7   11 1
  16    8    9 1
  17    8   50 1
  18    8   51 1
  19    9   10 1
  20   10   11 ar
  21   10   12 ar
  22   11   15 ar
  23   12   13 ar
  24   12   52 1
  25   13   14 ar
  26   13   16 1
  27   14   15 ar
  28   14   17 1
  29   15   53 1
  30   16   18 1
  31   17   18 1
  32   17   20 1
  33   17   21 1
  34   18   54 1
  35   18   55 1
  36   19   20 am
  37   19   26 1
  38   20   27 2
  39   21   22 ar
  40   21   26 ar
  41   22   23 ar
  42   22   56 1
  43   23   24 ar
  44   23   57 1
  45   24   25 ar
  46   24   58 1
  47   25   26 ar
  48   25   59 1
  49   28   29 ar
  50   28   33 ar
  51   29   30 ar
  52   29   60 1
  53   30   31 ar
  54   30   61 1
  55   31   32 ar
  56   31   35 1
  57   32   33 ar
  58   32   62 1
  59   33   63 1
  60   34   35 1
  61   34   38 1
  62   35   36 2
  63   36   37 1
  64   37   38 ar
  65   37   39 ar
  66   38   42 ar
  67   39   40 ar
  68   39   64 1
  69   40   41 ar
  70   40   65 1
  71   41   42 ar
  72   41   43 1
  73   42   66 1
  74   43   67 1
  75   43   68 1
  76   43   69 1

#	End of record

