#	Name: ASD00170449
#	Creating user name:	WinNT
#	Creation time:	15. 06. 2019 18:32

#	Modifying user name:	WinNT
#	Modification time:	15. 06. 2019 18:32

#	Program:	/corina/corina34_cracker 3.40 0067  02.08.2006

@<TRIPOS>MOLECULE
ASD00170449
  55   58    0    0    0
SMALL
NO_CHARGES


@<TRIPOS>ATOM
   1 C1            -0.0942     1.7486     0.4370 C.2     
   2 C2             0.2472     0.4139     0.4617 C.2     
   3 C3            -0.8861    -0.4495     0.6937 C.2     
   4 C4            -2.0350     0.2227     0.8372 C.2     
   5 S5            -1.7659     1.9509     0.6982 S.3     
   6 C6            -0.7865    -1.9514     0.7661 C.3     
   7 N7             0.7967     2.7805     0.2343 N.pl3   
   8 C8             1.6134    -0.0762     0.2727 C.2     
   9 C9             2.0450    -0.5701    -1.0524 C.ar    
  10 O10            2.3945    -0.0772     1.2069 O.2     
  11 C11            3.3719    -0.9514    -1.2601 C.ar    
  12 C12            3.7685    -1.4117    -2.4980 C.ar    
  13 C13            2.8533    -1.4961    -3.5343 C.ar    
  14 C14            1.5355    -1.1192    -3.3343 C.ar    
  15 C15            1.1259    -0.6624    -2.0994 C.ar    
  16 Cl16           3.3600    -2.0760    -5.0901 Cl      
  17 C17           -3.3498    -0.4050     1.0842 C.ar    
  18 C18           -4.0801    -0.0759     2.2276 C.ar    
  19 C19           -5.3068    -0.6656     2.4521 C.ar    
  20 C20           -5.8136    -1.5815     1.5472 C.ar    
  21 C21           -5.0947    -1.9126     0.4123 C.ar    
  22 C22           -3.8696    -1.3256     0.1724 C.ar    
  23 N23           -0.3725    -2.3490     2.1140 N.pl3   
  24 C24           -1.3340    -2.7228     3.0596 C.ar    
  25 C25            1.0480    -2.3552     2.4720 C.3     
  26 C26           -0.9553    -2.9830     4.3699 C.ar    
  27 C27           -1.9049    -3.3519     5.3025 C.ar    
  28 C28           -3.2365    -3.4629     4.9303 C.ar    
  29 C29           -3.6155    -3.2036     3.6216 C.ar    
  30 C30           -2.6682    -2.8281     2.6893 C.ar    
  31 O31           -4.1709    -3.8266     5.8492 O.3     
  32 C32           -5.5231    -3.9213     5.3968 C.3     
  33 H33           -1.7578    -2.3913     0.5398 H       
  34 H34           -0.0512    -2.3021     0.0420 H       
  35 H35            1.7466     2.5955     0.1695 H       
  36 H36            0.4737     3.6919     0.1565 H       
  37 H37            4.0865    -0.8857    -0.4529 H       
  38 H38            4.7947    -1.7066    -2.6599 H       
  39 H39            0.8264    -1.1869    -4.1462 H       
  40 H40            0.0981    -0.3691    -1.9445 H       
  41 H41           -3.6855     0.6386     2.9348 H       
  42 H42           -5.8727    -0.4122     3.3364 H       
  43 H43           -6.7745    -2.0403     1.7278 H       
  44 H44           -5.4959    -2.6285    -0.2898 H       
  45 H45           -3.3095    -1.5848    -0.7138 H       
  46 H46            1.3411    -1.3623     2.8131 H       
  47 H47            1.2186    -3.0784     3.2695 H       
  48 H48            1.6414    -2.6296     1.5998 H       
  49 H49            0.0815    -2.8973     4.6597 H       
  50 H50           -1.6106    -3.5543     6.3217 H       
  51 H51           -4.6525    -3.2906     3.3326 H       
  52 H52           -2.9636    -2.6259     1.6704 H       
  53 H53           -5.5891    -4.6643     4.6020 H       
  54 H54           -6.1638    -4.2192     6.2268 H       
  55 H55           -5.8477    -2.9527     5.0166 H       
@<TRIPOS>BOND
   1    1    2 2
   2    1    7 1
   3    1    5 1
   4    2    3 1
   5    2    8 1
   6    3    4 2
   7    3    6 1
   8    4    5 1
   9    4   17 1
  10    6   23 1
  11    6   33 1
  12    6   34 1
  13    7   35 1
  14    7   36 1
  15    8    9 1
  16    8   10 2
  17    9   11 ar
  18    9   15 ar
  19   11   12 ar
  20   11   37 1
  21   12   13 ar
  22   12   38 1
  23   13   14 ar
  24   13   16 1
  25   14   15 ar
  26   14   39 1
  27   15   40 1
  28   17   18 ar
  29   17   22 ar
  30   18   19 ar
  31   18   41 1
  32   19   20 ar
  33   19   42 1
  34   20   21 ar
  35   20   43 1
  36   21   22 ar
  37   21   44 1
  38   22   45 1
  39   23   24 1
  40   23   25 1
  41   24   26 ar
  42   24   30 ar
  43   25   46 1
  44   25   47 1
  45   25   48 1
  46   26   27 ar
  47   26   49 1
  48   27   28 ar
  49   27   50 1
  50   28   29 ar
  51   28   31 1
  52   29   30 ar
  53   29   51 1
  54   30   52 1
  55   31   32 1
  56   32   53 1
  57   32   54 1
  58   32   55 1

#	End of record

