#	Name: ASD08150435
#	Creating user name:	WinNT
#	Creation time:	15. 06. 2019 21:16

#	Modifying user name:	WinNT
#	Modification time:	15. 06. 2019 21:16

#	Program:	/corina/corina34_cracker 3.40 0067  02.08.2006

@<TRIPOS>MOLECULE
ASD08150435
  46   51    0    0    0
SMALL
NO_CHARGES


@<TRIPOS>ATOM
   1 N1             0.4555     2.0927     1.7017 N.am    
   2 C2             0.7218     1.1430     2.6193 C.2     
   3 C3             1.9355     0.4266     2.5882 C.2     
   4 C4             2.8575     0.6862     1.6264 C.2     
   5 C5             2.5805     1.6845     0.6591 C.ar    
   6 C6             3.5022     1.9925    -0.3598 C.ar    
   7 N7             3.2439     2.9136    -1.2511 N.ar    
   8 C8             2.0989     3.6129    -1.2492 C.ar    
   9 C9             1.1138     3.3695    -0.2606 C.ar    
  10 C10            1.3628     2.3795     0.7187 C.ar    
  11 C11           -0.0757     4.1045    -0.2669 C.ar    
  12 C12           -0.2784     5.0658    -1.2435 C.ar    
  13 C13            0.7008     5.3011    -2.2185 C.ar    
  14 C14            1.8627     4.5942    -2.2259 C.ar    
  15 O15           -0.0979     0.9000     3.4886 O.2     
  16 C16           -1.5379     5.8497    -1.2577 C.ar    
  17 C17           -0.7599     2.7866     1.7509 C.ar    
  18 C18           -1.8795     2.2738     1.1097 C.ar    
  19 C19           -3.0782     2.9602     1.1600 C.ar    
  20 C20           -3.1622     4.1591     1.8498 C.ar    
  21 C21           -2.0461     4.6714     2.4898 C.ar    
  22 C22           -0.8482     3.9858     2.4461 C.ar    
  23 Cl23          -4.4787     2.3204     0.3581 Cl      
  24 F24           -4.3344     4.8291     1.8978 F       
  25 C25           -1.5280     7.1951    -1.6221 C.ar    
  26 C26           -2.7502     5.2474    -0.9116 C.ar    
  27 N27           -3.8774     5.9235    -0.9176 N.ar    
  28 C28           -3.9224     7.2072    -1.2511 C.ar    
  29 C29           -2.7415     7.8827    -1.6175 C.ar    
  30 N30           -4.9476     8.1187    -1.3347 N.pl3   
  31 C31           -4.4623     9.3358    -1.7318 C.2     
  32 C32           -3.1356     9.2603    -1.9201 C.2     
  33 H33            2.1326    -0.3309     3.3323 H       
  34 H34            3.7889     0.1402     1.5989 H       
  35 H35            4.4397     1.4585    -0.4058 H       
  36 H36           -0.8310     3.9238     0.4836 H       
  37 H37            0.5300     6.0533    -2.9744 H       
  38 H38            2.6063     4.7886    -2.9846 H       
  39 H39           -1.8138     1.3396     0.5717 H       
  40 H40           -2.1137     5.6059     3.0269 H       
  41 H41            0.0218     4.3861     2.9454 H       
  42 H42           -0.6089     7.6900    -1.8991 H       
  43 H43           -2.7614     4.2039    -0.6335 H       
  44 H44           -5.8786     7.9278    -1.1408 H       
  45 H45           -5.0592    10.2243    -1.8758 H       
  46 H46           -2.4834    10.0622    -2.2334 H       
@<TRIPOS>BOND
   1    1    2 am
   2    1   10 1
   3    1   17 1
   4    2    3 1
   5    2   15 2
   6    3    4 2
   7    3   33 1
   8    4    5 1
   9    4   34 1
  10    5    6 ar
  11    5   10 ar
  12    6    7 ar
  13    6   35 1
  14    7    8 ar
  15    8    9 ar
  16    8   14 ar
  17    9   10 ar
  18    9   11 ar
  19   11   12 ar
  20   11   36 1
  21   12   13 ar
  22   12   16 1
  23   13   14 ar
  24   13   37 1
  25   14   38 1
  26   16   25 ar
  27   16   26 ar
  28   17   18 ar
  29   17   22 ar
  30   18   19 ar
  31   18   39 1
  32   19   20 ar
  33   19   23 1
  34   20   21 ar
  35   20   24 1
  36   21   22 ar
  37   21   40 1
  38   22   41 1
  39   25   29 ar
  40   25   42 1
  41   26   27 ar
  42   26   43 1
  43   27   28 ar
  44   28   29 ar
  45   28   30 1
  46   29   32 1
  47   30   31 1
  48   30   44 1
  49   31   32 2
  50   31   45 1
  51   32   46 1

#	End of record

