#	Name: ASD02198341
#	Creating user name:	WinNT
#	Creation time:	15. 06. 2019 20:19

#	Modifying user name:	WinNT
#	Modification time:	15. 06. 2019 20:19

#	Program:	/corina/corina34_cracker 3.40 0067  02.08.2006

@<TRIPOS>MOLECULE
ASD02198341
  37   39    0    0    0
SMALL
NO_CHARGES


@<TRIPOS>ATOM
   1 C1            -0.0312     1.3689     0.1493 C.2     
   2 C2            -0.0282    -0.0137     0.1860 C.2     
   3 S3             1.6393     1.9115     0.2864 S.3     
   4 C4             2.1756     0.2918     0.3776 C.2     
   5 N5             1.1709    -0.5334     0.3083 N.2     
   6 N6            -1.1811    -0.7773     0.1021 N.pl3   
   7 C7            -1.1639     2.1935     0.0197 C.2     
   8 C8            -1.0274     3.6626     0.1387 C.ar    
   9 O9            -2.2579     1.6979    -0.1907 O.2     
  10 N10            3.4916    -0.0891     0.5065 N.pl3   
  11 C11           -1.9145     4.5052    -0.5320 C.ar    
  12 C12           -0.0146     4.2105     0.9268 C.ar    
  13 C13            0.1070     5.5806     1.0340 C.ar    
  14 C14           -0.7729     6.4108     0.3625 C.ar    
  15 C15           -1.7822     5.8737    -0.4166 C.ar    
  16 C16            3.8394    -1.5106     0.5755 C.3     
  17 C17            5.9103    -1.6914     1.9696 C.ar    
  18 C18            5.3329    -1.6561     0.7141 C.ar    
  19 C19            7.2803    -1.8250     2.0968 C.ar    
  20 C20            8.0729    -1.9233     0.9685 C.ar    
  21 C21            7.4954    -1.8884    -0.2870 C.ar    
  22 C22            6.1254    -1.7549    -0.4142 C.ar    
  23 H23           -2.0444    -0.3440     0.0128 H       
  24 H24           -1.1250    -1.7452     0.1326 H       
  25 H25            4.1890     0.5836     0.5516 H       
  26 H26           -2.7027     4.0872    -1.1405 H       
  27 H27            0.6723     3.5635     1.4520 H       
  28 H28            0.8904     6.0060     1.6437 H       
  29 H29           -0.6739     7.4827     0.4503 H       
  30 H30           -2.4658     6.5270    -0.9383 H       
  31 H31            3.3486    -1.9633     1.4371 H       
  32 H32            3.5086    -2.0101    -0.3351 H       
  33 H33            5.2915    -1.6101     2.8510 H       
  34 H34            7.7315    -1.8522     3.0777 H       
  35 H35            9.1433    -2.0269     1.0678 H       
  36 H36            8.1146    -1.9652    -1.1685 H       
  37 H37            5.6743    -1.7274    -1.3950 H       
@<TRIPOS>BOND
   1    1    2 2
   2    1    3 1
   3    1    7 1
   4    2    6 1
   5    2    5 1
   6    3    4 1
   7    4    5 2
   8    4   10 1
   9    6   23 1
  10    6   24 1
  11    7    8 1
  12    7    9 2
  13    8   11 ar
  14    8   12 ar
  15   10   16 1
  16   10   25 1
  17   11   15 ar
  18   11   26 1
  19   12   13 ar
  20   12   27 1
  21   13   14 ar
  22   13   28 1
  23   14   15 ar
  24   14   29 1
  25   15   30 1
  26   16   18 1
  27   16   31 1
  28   16   32 1
  29   17   18 ar
  30   17   19 ar
  31   17   33 1
  32   18   22 ar
  33   19   20 ar
  34   19   34 1
  35   20   21 ar
  36   20   35 1
  37   21   22 ar
  38   21   36 1
  39   22   37 1

#	End of record

