#	Name: ASD00170491
#	Creating user name:	WinNT
#	Creation time:	15. 06. 2019 18:32

#	Modifying user name:	WinNT
#	Modification time:	15. 06. 2019 18:32

#	Program:	/corina/corina34_cracker 3.40 0067  02.08.2006

@<TRIPOS>MOLECULE
ASD00170491
  25   27    0    0    0
SMALL
NO_CHARGES


@<TRIPOS>ATOM
   1 C1            -0.0168     1.3842     0.0097 C.ar    
   2 C2             0.0021    -0.0041     0.0020 C.ar    
   3 C3            -1.1907    -0.7161     0.0096 C.ar    
   4 C4            -2.3911    -0.0412     0.0247 C.ar    
   5 C5            -2.4173     1.3487     0.0324 C.ar    
   6 C6            -1.2186     2.0624     0.0305 C.ar    
   7 C7            -3.8257    -0.5033     0.0364 C.3     
   8 C8            -4.6602     0.7589     0.0514 C.2     
   9 C9            -3.8364     1.8236     0.0490 C.2     
  10 S10           -6.3319     1.3186     0.0714 S.3     
  11 C11           -5.7747     2.9870     0.0751 C.2     
  12 N12           -4.4847     3.0092     0.0621 N.2     
  13 N13           -6.5940     4.1042     0.0895 N.pl3   
  14 O14            1.1886    -0.6670    -0.0133 O.3     
  15 I15            1.7851     2.4529    -0.0018 I       
  16 C16            1.1339    -2.0949    -0.0204 C.3     
  17 H17           -1.1767    -1.7960     0.0033 H       
  18 H18           -1.2312     3.1423     0.0368 H       
  19 H19           -4.0410    -1.0865    -0.8590 H       
  20 H20           -4.0233    -1.0961     0.9295 H       
  21 H21           -7.5582     3.9984     0.0987 H       
  22 H22           -6.2035     4.9921     0.0905 H       
  23 H23            0.6154    -2.4431     0.8729 H       
  24 H24            0.5977    -2.4336    -0.9070 H       
  25 H25            2.1468    -2.4973    -0.0327 H       
@<TRIPOS>BOND
   1    1    2 ar
   2    1   15 1
   3    1    6 ar
   4    2    3 ar
   5    2   14 1
   6    3    4 ar
   7    3   17 1
   8    4    5 ar
   9    4    7 1
  10    5    6 ar
  11    5    9 1
  12    6   18 1
  13    7    8 1
  14    7   19 1
  15    7   20 1
  16    8    9 2
  17    8   10 1
  18    9   12 1
  19   10   11 1
  20   11   12 2
  21   11   13 1
  22   13   21 1
  23   13   22 1
  24   14   16 1
  25   16   23 1
  26   16   24 1
  27   16   25 1

#	End of record

