#	Name: ASD01420043
#	Creating user name:	WinNT
#	Creation time:	15. 06. 2019 19:20

#	Modifying user name:	WinNT
#	Modification time:	15. 06. 2019 19:20

#	Program:	/corina/corina34_cracker 3.40 0067  02.08.2006

@<TRIPOS>MOLECULE
ASD01420043
  32   32    0    0    0
SMALL
NO_CHARGES


@<TRIPOS>ATOM
   1 C1            -0.0180     1.4761     0.0102 C.3     
   2 N2             0.0021    -0.0041     0.0020 N.3     
   3 C3             1.2729    -0.3390    -0.6794 C.3     
   4 C4             2.1994     0.8256    -0.4114 C.ar    
   5 C5             3.5695     0.9481    -0.5100 C.ar    
   6 C6             4.1842     2.1616    -0.1963 C.ar    
   7 C7             3.4056     3.2450     0.2161 C.ar    
   8 C8             2.0365     3.1097     0.3108 C.ar    
   9 C9             1.4323     1.9048    -0.0014 C.ar    
  10 C10            5.6515     2.2988    -0.2997 C.2     
  11 O11            6.3260     1.3544    -0.6583 O.2     
  12 O12            6.2414     3.4712     0.0038 O.3     
  13 C13            7.6867     3.5336    -0.1205 C.3     
  14 H14           -0.5283     1.8506    -0.8772 H       
  15 H15           -0.5113     1.8410     0.9111 H       
  16 H16           -0.0119    -0.3711     0.9418 H       
  17 H17            1.6917    -1.2563    -0.2656 H       
  18 H18            1.1077    -0.4497    -1.7511 H       
  19 H19            4.1661     0.1063    -0.8292 H       
  20 H20            3.8746     4.1868     0.4600 H       
  21 H21            1.4338     3.9471     0.6300 H       
  22 H22            7.9724     3.3200    -1.1505 H       
  23 H23            8.0322     4.5305     0.1531 H       
  24 H24            8.1405     2.7971     0.5426 H       
  25 C25           14.3120    11.5188     7.0886 C.2     
  26 C26           14.3324    10.0119     7.0803 C.3     
  27 O27           15.3500    12.1371     7.0820 O.2     
  28 O28           13.1405    12.1740     7.0977 O.3     
  29 F29           15.6575     9.5636     7.0653 F       
  30 F30           13.6902     9.5305     8.2262 F       
  31 F31           13.6684     9.5428     5.9418 F       
  32 H32           13.1780    13.1403     7.1028 H       
@<TRIPOS>BOND
   1    1    2 1
   2    1    9 1
   3    1   14 1
   4    1   15 1
   5    2    3 1
   6    2   16 1
   7    3    4 1
   8    3   17 1
   9    3   18 1
  10    4    5 ar
  11    4    9 ar
  12    5    6 ar
  13    5   19 1
  14    6    7 ar
  15    6   10 1
  16    7    8 ar
  17    7   20 1
  18    8    9 ar
  19    8   21 1
  20   10   11 2
  21   10   12 1
  22   12   13 1
  23   13   22 1
  24   13   23 1
  25   13   24 1
  26   25   26 1
  27   25   27 2
  28   25   28 1
  29   26   29 1
  30   26   30 1
  31   26   31 1
  32   28   32 1

#	End of record

