#	Name: ASD08150679
#	Creating user name:	WinNT
#	Creation time:	15. 06. 2019 21:16

#	Modifying user name:	WinNT
#	Modification time:	15. 06. 2019 21:16

#	Program:	/corina/corina34_cracker 3.40 0067  02.08.2006

@<TRIPOS>MOLECULE
ASD08150679
  57   60    0    0    0
SMALL
NO_CHARGES


@<TRIPOS>ATOM
   1 C1            -0.0184     1.5028     0.0103 C.2     
   2 C2             0.0021    -0.0041     0.0020 C.3     
   3 O3             1.0197     2.1211     0.0037 O.2     
   4 O4            -1.1898     2.1580     0.0194 O.3     
   5 F5             1.3272    -0.4524    -0.0130 F       
   6 F6            -0.6401    -0.4855     1.1479 F       
   7 F7            -0.6619    -0.4732    -1.1365 F       
   8 H8            -1.1523     3.1243     0.0245 H       
   9 C9             8.5214    16.4527    10.9316 C.2     
  10 N10            8.5382    15.1234    11.0238 N.2     
  11 C11            9.6716    14.4501    11.1102 C.2     
  12 C12           10.8870    15.1321    11.1063 C.2     
  13 C13           10.8722    16.5396    11.0089 C.2     
  14 N14            9.6832    17.1740    10.9226 N.am    
  15 C15            7.2879    17.1220    10.8363 C.2     
  16 C16            7.2677    18.4816    10.7419 C.2     
  17 C17            8.4756    19.1930    10.7411 C.2     
  18 C18            9.6522    18.5327    10.8271 C.2     
  19 O19           11.9153    17.1725    11.0030 O.2     
  20 C20            9.6503    12.9468    11.2134 C.3     
  21 C21            8.9880    12.5353    12.5299 C.3     
  22 N22            8.8914    12.3909    10.0904 N.pl3   
  23 N23            7.4404    10.9995     7.7645 N.2     
  24 C24            7.1240    10.0658     6.9150 C.2     
  25 N25            7.8854     8.9570     7.1365 N.pl3   
  26 C26            8.7195     9.2346     8.1899 C.ar    
  27 N27            9.6614     8.5625     8.8435 N.ar    
  28 C28           10.3092     9.1183     9.8457 C.ar    
  29 N29           10.0644    10.3508    10.2514 N.ar    
  30 C30            9.1404    11.0999     9.6585 C.ar    
  31 C31            8.4222    10.5505     8.5830 C.ar    
  32 C32           10.9442    19.3085    10.8185 C.3     
  33 C33           12.1679    14.3946    11.2029 C.ar    
  34 C34           12.8895    14.3962    12.3990 C.ar    
  35 C35           14.0837    13.7065    12.4830 C.ar    
  36 C36           14.5651    13.0152    11.3857 C.ar    
  37 C37           13.8541    13.0098    10.1968 C.ar    
  38 C38           12.6552    13.6914    10.1022 C.ar    
  39 F39           14.3307    12.3327     9.1293 F       
  40 F40           12.4209    15.0713    13.4713 F       
  41 H41            6.3639    16.5628    10.8376 H       
  42 H42            6.3272    19.0074    10.6679 H       
  43 H43            8.4665    20.2704    10.6662 H       
  44 H44           10.6713    12.5661    11.1859 H       
  45 H45            8.9725    11.4480    12.6045 H       
  46 H46            9.5526    12.9489    13.3655 H       
  47 H47            7.9670    12.9159    12.5574 H       
  48 H48            8.2144    12.9277     9.6494 H       
  49 H49            6.3691    10.1559     6.1479 H       
  50 H50            7.8447     8.1243     6.6406 H       
  51 H51           11.0689     8.5445    10.3556 H       
  52 H52           11.5511    18.9941     9.9694 H       
  53 H53           10.7279    20.3736    10.7360 H       
  54 H54           11.4880    19.1188    11.7439 H       
  55 H55           14.6426    13.7074    13.4071 H       
  56 H56           15.4992    12.4778    11.4561 H       
  57 H57           12.0992    13.6825     9.1764 H       
@<TRIPOS>BOND
   1    1    2 1
   2    1    3 2
   3    1    4 1
   4    2    5 1
   5    2    6 1
   6    2    7 1
   7    4    8 1
   8    9   10 2
   9    9   14 1
  10    9   15 1
  11   10   11 1
  12   11   12 2
  13   11   20 1
  14   12   13 1
  15   12   33 1
  16   13   14 am
  17   13   19 2
  18   14   18 1
  19   15   16 2
  20   15   41 1
  21   16   17 1
  22   16   42 1
  23   17   18 2
  24   17   43 1
  25   18   32 1
  26   20   21 1
  27   20   22 1
  28   20   44 1
  29   21   45 1
  30   21   46 1
  31   21   47 1
  32   22   30 1
  33   22   48 1
  34   23   24 2
  35   23   31 1
  36   24   25 1
  37   24   49 1
  38   25   26 1
  39   25   50 1
  40   26   27 ar
  41   26   31 ar
  42   27   28 ar
  43   28   29 ar
  44   28   51 1
  45   29   30 ar
  46   30   31 ar
  47   32   52 1
  48   32   53 1
  49   32   54 1
  50   33   34 ar
  51   33   38 ar
  52   34   35 ar
  53   34   40 1
  54   35   36 ar
  55   35   55 1
  56   36   37 ar
  57   36   56 1
  58   37   38 ar
  59   37   39 1
  60   38   57 1

#	End of record

