#	Name: ASD08150680
#	Creating user name:	WinNT
#	Creation time:	15. 06. 2019 21:16

#	Modifying user name:	WinNT
#	Modification time:	15. 06. 2019 21:16

#	Program:	/corina/corina34_cracker 3.40 0067  02.08.2006

@<TRIPOS>MOLECULE
ASD08150680
  57   60    0    0    0
SMALL
NO_CHARGES


@<TRIPOS>ATOM
   1 C1            -0.0184     1.5028     0.0103 C.2     
   2 C2             0.0021    -0.0041     0.0020 C.3     
   3 O3             1.0197     2.1211     0.0037 O.2     
   4 O4            -1.1898     2.1580     0.0194 O.3     
   5 F5             1.3272    -0.4524    -0.0130 F       
   6 F6            -0.6401    -0.4855     1.1479 F       
   7 F7            -0.6619    -0.4732    -1.1365 F       
   8 H8            -1.1523     3.1243     0.0245 H       
   9 C9             8.5213    16.4533    10.9309 C.2     
  10 N10            8.5381    15.1240    11.0232 N.2     
  11 C11            9.6714    14.4507    11.1099 C.2     
  12 C12           10.8868    15.1327    11.1060 C.2     
  13 C13           10.8721    16.5401    11.0083 C.2     
  14 N14            9.6831    17.1745    10.9219 N.am    
  15 C15            7.2878    17.1226    10.8354 C.2     
  16 C16            7.2677    18.4822    10.7408 C.2     
  17 C17            8.4756    19.1936    10.7400 C.2     
  18 C18            9.6522    18.5333    10.8266 C.2     
  19 O19           11.9152    17.1730    11.0025 O.2     
  20 C20            9.6500    12.9474    11.2133 C.3     
  21 C21            8.9876    12.5361    12.5298 C.3     
  22 N22            8.8913    12.3914    10.0902 N.pl3   
  23 N23            7.4405    10.9996     7.7645 N.2     
  24 C24            7.1241    10.0658     6.9150 C.2     
  25 N25            7.8855     8.9570     7.1369 N.pl3   
  26 C26            8.7195     9.2348     8.1902 C.ar    
  27 N27            9.6613     8.5628     8.8440 N.ar    
  28 C28           10.3090     9.1187     9.8462 C.ar    
  29 N29           10.0642    10.3513    10.2517 N.ar    
  30 C30            9.1402    11.1003     9.6586 C.ar    
  31 C31            8.4221    10.5508     8.5831 C.ar    
  32 C32           10.9441    19.3090    10.8185 C.3     
  33 C33           12.1677    14.3951    11.2028 C.ar    
  34 C34           12.8889    14.3969    12.3984 C.ar    
  35 C35           14.0846    13.7051    12.4813 C.ar    
  36 C36           14.5638    13.0132    11.3809 C.ar    
  37 C37           13.8516    13.0096    10.1953 C.ar    
  38 C38           12.6552    13.6915    10.1020 C.ar    
  39 F39           14.7854    13.7049    13.6363 F       
  40 F40           12.4212    15.0723    13.4709 F       
  41 H41            6.3638    16.5635    10.8367 H       
  42 H42            6.3272    19.0080    10.6666 H       
  43 H43            8.4665    20.2709    10.6649 H       
  44 H44           10.6711    12.5667    11.1859 H       
  45 H45            8.9722    11.4488    12.6046 H       
  46 H46            9.5522    12.9498    13.3653 H       
  47 H47            7.9666    12.9168    12.5572 H       
  48 H48            8.2143    12.9281     9.6492 H       
  49 H49            6.3693    10.1559     6.1479 H       
  50 H50            7.8448     8.1243     6.6411 H       
  51 H51           11.0687     8.5450    10.3563 H       
  52 H52           11.5512    18.9950     9.9694 H       
  53 H53           10.7279    20.3742    10.7364 H       
  54 H54           11.4878    19.1190    11.7439 H       
  55 H55           15.4974    12.4746    11.4491 H       
  56 H56           14.2307    12.4682     9.3412 H       
  57 H57           12.0993    13.6835     9.1761 H       
@<TRIPOS>BOND
   1    1    2 1
   2    1    3 2
   3    1    4 1
   4    2    5 1
   5    2    6 1
   6    2    7 1
   7    4    8 1
   8    9   10 2
   9    9   14 1
  10    9   15 1
  11   10   11 1
  12   11   12 2
  13   11   20 1
  14   12   13 1
  15   12   33 1
  16   13   14 am
  17   13   19 2
  18   14   18 1
  19   15   16 2
  20   15   41 1
  21   16   17 1
  22   16   42 1
  23   17   18 2
  24   17   43 1
  25   18   32 1
  26   20   21 1
  27   20   22 1
  28   20   44 1
  29   21   45 1
  30   21   46 1
  31   21   47 1
  32   22   30 1
  33   22   48 1
  34   23   24 2
  35   23   31 1
  36   24   25 1
  37   24   49 1
  38   25   26 1
  39   25   50 1
  40   26   27 ar
  41   26   31 ar
  42   27   28 ar
  43   28   29 ar
  44   28   51 1
  45   29   30 ar
  46   30   31 ar
  47   32   52 1
  48   32   53 1
  49   32   54 1
  50   33   34 ar
  51   33   38 ar
  52   34   35 ar
  53   34   40 1
  54   35   36 ar
  55   35   39 1
  56   36   37 ar
  57   36   55 1
  58   37   38 ar
  59   37   56 1
  60   38   57 1

#	End of record

