#	Name: ASD02500090
#	Creating user name:	WinNT
#	Creation time:	15. 06. 2019 20:22

#	Modifying user name:	WinNT
#	Modification time:	15. 06. 2019 20:22

#	Program:	/corina/corina34_cracker 3.40 0067  02.08.2006

@<TRIPOS>MOLECULE
ASD02500090
  48   51    0    0    0
SMALL
NO_CHARGES


@<TRIPOS>ATOM
   1 N1             0.3475     1.2432    -0.2036 N.am    
   2 N2            -2.1007    -6.2994    -3.1310 N.3     
   3 C3            -1.9451    -6.9360    -1.8163 C.3     
   4 C4            -0.6154    -6.4969    -1.1940 C.3     
   5 N5            -0.5677    -5.0269    -1.1827 N.am    
   6 C6            -0.8498    -4.3119    -2.4366 C.3     
   7 C7            -2.1703    -4.8370    -3.0101 C.3     
   8 C8            -0.2738    -4.3530    -0.0531 C.2     
   9 O9            -0.1408    -4.9535     0.9960 O.2     
  10 C10           -0.1136    -2.8885    -0.0894 C.ar    
  11 C11           -0.8078    -2.0831     0.8229 C.ar    
  12 C12           -0.6524    -0.7129     0.7824 C.ar    
  13 C13            0.1914    -0.1379    -0.1625 C.ar    
  14 C14            0.8797    -0.9417    -1.0677 C.ar    
  15 C15            0.7360    -2.2993    -1.0306 C.ar    
  16 S16            1.8636     1.9026    -0.2995 S.o2    
  17 C17            2.7226     1.4514     1.1712 C.ar    
  18 O18            2.5229     1.2389    -1.3690 O.2     
  19 O19            1.6920     3.3123    -0.2475 O.2     
  20 C20            2.2787     1.9204     2.4197 C.ar    
  21 C21            2.9861     1.5439     3.5884 C.ar    
  22 C22            4.1123     0.7126     3.4800 C.ar    
  23 C23            4.5121     0.2777     2.2532 C.ar    
  24 C24            3.8153     0.6428     1.1033 C.ar    
  25 N25            1.2056     2.7118     2.5176 N.ar    
  26 C26            0.7877     3.1523     3.6793 C.ar    
  27 C27            1.4371     2.8200     4.8664 C.ar    
  28 C28            2.5398     2.0147     4.8377 C.ar    
  29 Ar29          -3.7031    -7.0162    -4.0894 Du      
  30 F30           -1.6265    -2.6460     1.7384 F       
  31 H31           -0.4318     1.8203    -0.1800 H       
  32 H32           -2.7675    -6.6354    -1.1671 H       
  33 H33           -1.9514    -8.0196    -1.9339 H       
  34 H34           -0.5468    -6.8734    -0.1734 H       
  35 H35            0.2124    -6.8856    -1.7870 H       
  36 H36           -0.9361    -3.2437    -2.2376 H       
  37 H37           -0.0444    -4.4905    -3.1491 H       
  38 H38           -2.3398    -4.3983    -3.9934 H       
  39 H39           -2.9894    -4.5657    -2.3441 H       
  40 H40           -1.1854    -0.0873     1.4831 H       
  41 H41            1.5335    -0.4899    -1.7991 H       
  42 H42            1.2725    -2.9179    -1.7348 H       
  43 H43            4.6587     0.4202     4.3646 H       
  44 H44            5.3786    -0.3617     2.1707 H       
  45 H45            4.1521     0.2845     0.1417 H       
  46 H46           -0.0831     3.7901     3.7173 H       
  47 H47            1.0689     3.1989     5.8083 H       
  48 H48            3.0553     1.7468     5.7482 H       
@<TRIPOS>BOND
   1    1   13 1
   2    1   16 am
   3    1   31 1
   4    2    3 1
   5    2   29 1
   6    2    7 1
   7    3    4 1
   8    3   32 1
   9    3   33 1
  10    4    5 1
  11    4   34 1
  12    4   35 1
  13    5    6 1
  14    5    8 am
  15    6    7 1
  16    6   36 1
  17    6   37 1
  18    7   38 1
  19    7   39 1
  20    8    9 2
  21    8   10 1
  22   10   11 ar
  23   10   15 ar
  24   11   12 ar
  25   11   30 1
  26   12   13 ar
  27   12   40 1
  28   13   14 ar
  29   14   15 ar
  30   14   41 1
  31   15   42 1
  32   16   17 1
  33   16   18 2
  34   16   19 2
  35   17   20 ar
  36   17   24 ar
  37   20   21 ar
  38   20   25 ar
  39   21   22 ar
  40   21   28 ar
  41   22   23 ar
  42   22   43 1
  43   23   24 ar
  44   23   44 1
  45   24   45 1
  46   25   26 ar
  47   26   27 ar
  48   26   46 1
  49   27   28 ar
  50   27   47 1
  51   28   48 1

#	End of record

