#	Name: ASD01915149
#	Creating user name:	WinNT
#	Creation time:	15. 06. 2019 20:04

#	Modifying user name:	WinNT
#	Modification time:	15. 06. 2019 20:04

#	Program:	/corina/corina34_cracker 3.40 0067  02.08.2006

@<TRIPOS>MOLECULE
ASD01915149
  38   41    0    0    0
SMALL
NO_CHARGES


@<TRIPOS>ATOM
   1 C1            -0.0169     1.3924     0.0097 C.ar    
   2 C2             0.0021    -0.0041     0.0020 C.ar    
   3 N3            -1.1430    -0.6903     0.0092 N.ar    
   4 C4            -2.3136    -0.0965     0.0236 C.ar    
   5 C5            -2.4136     1.2863     0.0316 C.ar    
   6 C6            -1.2657     2.0479     0.0305 C.ar    
   7 C7             1.3286     1.9586    -0.0001 C.2     
   8 C8             2.3058     1.0549    -0.0143 C.2     
   9 S9             1.6661    -0.5766    -0.0169 S.3     
  10 C10            1.5853     3.4181     0.0048 C.ar    
  11 C11            1.2153     4.1896     1.1051 C.ar    
  12 S12            4.0232     1.4487    -0.0285 S.o2    
  13 O13            4.6883     0.3232    -0.5854 O.2     
  14 O14            4.1298     2.7594    -0.5670 O.2     
  15 C15            4.5476     1.5563     1.6502 C.ar    
  16 C16            5.0207     0.4299     2.2984 C.ar    
  17 C17            4.4904     2.7652     2.3127 C.ar    
  18 C18            4.9064     2.8502     3.6427 C.ar    
  19 C19            5.3784     1.7094     4.2947 C.ar    
  20 C20            5.4356     0.5059     3.6186 C.ar    
  21 F21            5.8918    -0.5997     4.2470 F       
  22 C22            1.4573     5.5506     1.1036 C.ar    
  23 C23            2.0658     6.1465     0.0108 C.ar    
  24 C24            2.4343     5.3840    -1.0829 C.ar    
  25 C25            2.2030     4.0238    -1.0892 C.ar    
  26 F26            1.0997     6.3007     2.1689 F       
  27 C27            4.8498     4.1024     4.3351 C.1     
  28 N28            4.8049     5.0958     4.8844 N.1     
  29 H29           -3.2129    -0.6945     0.0290 H       
  30 H30           -3.3830     1.7623     0.0427 H       
  31 H31           -1.3209     3.1265     0.0366 H       
  32 H32            0.7403     3.7253     1.9567 H       
  33 H33            5.0667    -0.5130     1.7737 H       
  34 H34            4.1248     3.6444     1.8031 H       
  35 H35            5.7017     1.7684     5.3235 H       
  36 H36            2.2527     7.2102     0.0128 H       
  37 H37            2.9080     5.8539    -1.9321 H       
  38 H38            2.4919     3.4302    -1.9440 H       
@<TRIPOS>BOND
   1    1    2 ar
   2    1    7 1
   3    1    6 ar
   4    2    3 ar
   5    2    9 1
   6    3    4 ar
   7    4    5 ar
   8    4   29 1
   9    5    6 ar
  10    5   30 1
  11    6   31 1
  12    7    8 2
  13    7   10 1
  14    8    9 1
  15    8   12 1
  16   10   11 ar
  17   10   25 ar
  18   11   22 ar
  19   11   32 1
  20   12   13 2
  21   12   14 2
  22   12   15 1
  23   15   16 ar
  24   15   17 ar
  25   16   20 ar
  26   16   33 1
  27   17   18 ar
  28   17   34 1
  29   18   19 ar
  30   18   27 1
  31   19   20 ar
  32   19   35 1
  33   20   21 1
  34   22   23 ar
  35   22   26 1
  36   23   24 ar
  37   23   36 1
  38   24   25 ar
  39   24   37 1
  40   25   38 1
  41   27   28 3

#	End of record

