#	Name: ASD04410001
#	Creating user name:	WinNT
#	Creation time:	15. 06. 2019 20:49

#	Modifying user name:	WinNT
#	Modification time:	15. 06. 2019 20:49

#	Program:	/corina/corina34_cracker 3.40 0067  02.08.2006

@<TRIPOS>MOLECULE
ASD04410001
  66   70    0    0    0
SMALL
NO_CHARGES


@<TRIPOS>ATOM
   1 C1            -0.0070     1.3989     0.2737 C.ar    
   2 C2            -0.0002     0.0076     0.1766 C.ar    
   3 C3             1.2143    -0.6565     0.0081 C.ar    
   4 C4             2.3722     0.0956    -0.0565 C.ar    
   5 C5             2.2876     1.4843     0.0483 C.ar    
   6 N6             1.1123     2.0825     0.2083 N.ar    
   7 C7             3.5194     2.2990    -0.0188 C.2     
   8 N8             3.4356     3.6409    -0.1126 N.am    
   9 O9             4.6079     1.7586     0.0104 O.2     
  10 C10            4.6408     4.4750    -0.0110 C.3     
  11 C11            4.7127     5.3885    -1.2387 C.3     
  12 C12            3.4084     6.1793    -1.3582 C.3     
  13 C13            2.2367     5.2133    -1.5427 C.3     
  14 C14            2.1381     4.2968    -0.3244 C.3     
  15 C15            3.1945     7.0056    -0.0874 C.3     
  16 C16            4.3390     8.0112     0.0594 C.3     
  17 N17            4.3751     8.8885    -1.1177 N.3     
  18 C18            4.6264     8.1220    -2.3448 C.3     
  19 C19            3.4905     7.1197    -2.5632 C.3     
  20 C20            5.3719     9.9544    -0.9494 C.3     
  21 C21            5.5570    10.6801    -2.2571 C.ar    
  22 C22            6.6396    10.3836    -3.0659 C.ar    
  23 C23            6.8042    11.0521    -4.2651 C.ar    
  24 C24            5.8973    12.0148    -4.6566 C.ar    
  25 C25            4.8072    12.3224    -3.8461 C.ar    
  26 C26            4.6452    11.6347    -2.6503 C.ar    
  27 O27            3.8151    13.2369    -4.0270 O.3     
  28 C28            2.7026    12.9016    -3.1801 C.3     
  29 C29            3.3777    12.1594    -2.0039 C.3     
  30 C30            1.9934    14.1659    -2.6908 C.3     
  31 C31            1.7252    11.9777    -3.9095 C.3     
  32 N32           -1.1902    -0.7086     0.2473 N.pl3   
  33 H33           -0.9443     1.9205     0.3998 H       
  34 H34            1.2494    -1.7332    -0.0698 H       
  35 H35            3.3304    -0.3857    -0.1861 H       
  36 H36            4.5904     5.0815     0.8933 H       
  37 H37            5.5245     3.8378     0.0226 H       
  38 H38            5.5485     6.0796    -1.1295 H       
  39 H39            4.8548     4.7837    -2.1344 H       
  40 H40            1.3115     5.7797    -1.6491 H       
  41 H41            2.3995     4.6104    -2.4361 H       
  42 H42            1.3697     3.5429    -0.4955 H       
  43 H43            1.8846     4.8863     0.5567 H       
  44 H44            2.2470     7.5400    -0.1559 H       
  45 H45            3.1781     6.3438     0.7785 H       
  46 H46            4.1821     8.6118     0.9553 H       
  47 H47            5.2847     7.4755     0.1423 H       
  48 H48            4.6781     8.8031    -3.1942 H       
  49 H49            5.5708     7.5860    -2.2512 H       
  50 H50            3.6855     6.5395    -3.4651 H       
  51 H51            2.5477     7.6559    -2.6714 H       
  52 H52            5.0283    10.6565    -0.1897 H       
  53 H53            6.3212     9.5183    -0.6383 H       
  54 H54            7.3539     9.6329    -2.7614 H       
  55 H55            7.6476    10.8194    -4.8984 H       
  56 H56            6.0332    12.5322    -5.5948 H       
  57 H57            2.7524    11.3395    -1.6504 H       
  58 H58            3.6110    12.8476    -1.1916 H       
  59 H59            1.6031    14.7176    -3.5460 H       
  60 H60            1.1710    13.8889    -2.0311 H       
  61 H61            2.7007    14.7917    -2.1466 H       
  62 H62            2.2446    11.0708    -4.2191 H       
  63 H63            0.9047    11.7163    -3.2412 H       
  64 H64            1.3299    12.4878    -4.7879 H       
  65 H65           -2.0317    -0.2407     0.3649 H       
  66 H66           -1.1787    -1.6761     0.1790 H       
@<TRIPOS>BOND
   1    1    2 ar
   2    1    6 ar
   3    1   33 1
   4    2    3 ar
   5    2   32 1
   6    3    4 ar
   7    3   34 1
   8    4    5 ar
   9    4   35 1
  10    5    6 ar
  11    5    7 1
  12    7    8 am
  13    7    9 2
  14    8   10 1
  15    8   14 1
  16   10   11 1
  17   10   36 1
  18   10   37 1
  19   11   12 1
  20   11   38 1
  21   11   39 1
  22   12   13 1
  23   12   15 1
  24   12   19 1
  25   13   14 1
  26   13   40 1
  27   13   41 1
  28   14   42 1
  29   14   43 1
  30   15   16 1
  31   15   44 1
  32   15   45 1
  33   16   17 1
  34   16   46 1
  35   16   47 1
  36   17   18 1
  37   17   20 1
  38   18   19 1
  39   18   48 1
  40   18   49 1
  41   19   50 1
  42   19   51 1
  43   20   21 1
  44   20   52 1
  45   20   53 1
  46   21   22 ar
  47   21   26 ar
  48   22   23 ar
  49   22   54 1
  50   23   24 ar
  51   23   55 1
  52   24   25 ar
  53   24   56 1
  54   25   26 ar
  55   25   27 1
  56   26   29 1
  57   27   28 1
  58   28   29 1
  59   28   30 1
  60   28   31 1
  61   29   57 1
  62   29   58 1
  63   30   59 1
  64   30   60 1
  65   30   61 1
  66   31   62 1
  67   31   63 1
  68   31   64 1
  69   32   65 1
  70   32   66 1

#	End of record

