#	Name: ASD08178060
#	Creating user name:	WinNT
#	Creation time:	15. 06. 2019 21:18

#	Modifying user name:	WinNT
#	Modification time:	15. 06. 2019 21:18

#	Program:	/corina/corina34_cracker 3.40 0067  02.08.2006

@<TRIPOS>MOLECULE
ASD08178060
  41   42    0    0    0
SMALL
NO_CHARGES


@<TRIPOS>ATOM
   1 N1            -0.0150     1.2568     0.0090 N.2     
   2 N2             0.0021    -0.0041     0.0020 N.2     
   3 C3             1.1306     1.8763     0.0013 C.2     
   4 S4             2.4015     0.6517    -0.0174 S.3     
   5 C5             1.1523    -0.5949    -0.0121 C.2     
   6 N6             1.3180     3.2505     0.0065 N.pl3   
   7 C7             1.3847    -2.0839    -0.0219 C.3     
   8 C8             1.4500    -2.5804    -1.4676 C.3     
   9 C9             1.7764    -4.7668    -3.2494 C.3     
  10 C10            2.0093    -6.2679    -3.4317 C.3     
  11 C11            2.0479    -6.5953    -4.9022 C.2     
  12 N12            3.1010    -6.6004    -5.6563 N.2     
  13 S13            0.6683    -7.0480    -5.9039 S.3     
  14 C14            1.7163    -7.1829    -7.2523 C.2     
  15 N15            2.9256    -6.9031    -6.8694 N.2     
  16 N16            1.3363    -7.5384    -8.5420 N.am    
  17 C17            2.2597    -7.6097    -9.5212 C.2     
  18 O18            3.4221    -7.3638    -9.2776 O.2     
  19 C19            1.8479    -7.9949   -10.9187 C.3     
  20 O20            0.5485    -7.4681   -11.1947 O.3     
  21 S21            1.7298    -4.3726    -1.4794 S.3     
  22 C22            2.8529    -7.4252   -11.9218 C.3     
  23 C23            1.8159    -9.5199   -11.0389 C.3     
  24 F24            4.1249    -7.9410   -11.6516 F       
  25 F25            2.4705    -7.7828   -13.2192 F       
  26 F26            2.8821    -6.0308   -11.8119 F       
  27 H27            0.5513     3.8446     0.0171 H       
  28 H28            2.2159     3.6176    -0.0004 H       
  29 H29            2.3249    -2.3082     0.4821 H       
  30 H30            0.5663    -2.5828     0.4970 H       
  31 H31            0.5099    -2.3561    -1.9716 H       
  32 H32            2.2685    -2.0815    -1.9865 H       
  33 H33            2.5867    -4.2131    -3.7238 H       
  34 H34            0.8281    -4.4878    -3.7088 H       
  35 H35            2.9575    -6.5469    -2.9723 H       
  36 H36            1.1989    -6.8216    -2.9574 H       
  37 H37            0.4066    -7.7350    -8.7369 H       
  38 H38            0.4945    -6.5043   -11.1367 H       
  39 H39            1.1000    -9.9257   -10.3242 H       
  40 H40            1.5181    -9.7985   -12.0497 H       
  41 H41            2.8070    -9.9217   -10.8284 H       
@<TRIPOS>BOND
   1    1    2 1
   2    1    3 2
   3    2    5 2
   4    3    4 1
   5    3    6 1
   6    4    5 1
   7    5    7 1
   8    6   27 1
   9    6   28 1
  10    7    8 1
  11    7   29 1
  12    7   30 1
  13    8   21 1
  14    8   31 1
  15    8   32 1
  16    9   10 1
  17    9   21 1
  18    9   33 1
  19    9   34 1
  20   10   11 1
  21   10   35 1
  22   10   36 1
  23   11   12 2
  24   11   13 1
  25   12   15 1
  26   13   14 1
  27   14   15 2
  28   14   16 1
  29   16   17 am
  30   16   37 1
  31   17   18 2
  32   17   19 1
  33   19   22 1
  34   19   23 1
  35   19   20 1
  36   20   38 1
  37   22   24 1
  38   22   25 1
  39   22   26 1
  40   23   39 1
  41   23   40 1
  42   23   41 1

#	End of record

