#	Name: ASD05430392
#	Creating user name:	WinNT
#	Creation time:	15. 06. 2019 21:00

#	Modifying user name:	WinNT
#	Modification time:	15. 06. 2019 21:00

#	Program:	/corina/corina34_cracker 3.40 0067  02.08.2006

@<TRIPOS>MOLECULE
ASD05430392
  65   69    0    0    0
SMALL
NO_CHARGES


@<TRIPOS>ATOM
   1 C1            -0.3541     1.3685    -1.3168 C.ar    
   2 C2            -0.4367     0.0564    -1.7812 C.ar    
   3 C3            -1.6754    -0.5516    -1.9381 C.ar    
   4 C4            -2.8290     0.1388    -1.6352 C.ar    
   5 C5            -2.7539     1.4552    -1.1684 C.ar    
   6 C6            -1.5065     2.0654    -1.0055 C.ar    
   7 C7            -5.1749     1.5578    -0.8480 C.2     
   8 C8            -3.9847     2.1945    -0.8449 C.2     
   9 N9            -7.4281     1.6888     0.0713 N.pl3   
  10 C10           -6.4447     2.3009    -0.7054 C.2     
  11 O11            0.8602     1.9606    -1.1649 O.3     
  12 C12            0.8703     3.3065    -0.6849 C.3     
  13 C13            1.0641    -1.9091    -1.6587 C.2     
  14 N14            0.7339    -0.6509    -2.0910 N.pl3   
  15 C15            2.2664    -2.2013    -2.1907 C.2     
  16 N16            2.6636    -1.1538    -2.9281 N.2     
  17 C17            1.7542    -0.2188    -2.8763 C.2     
  18 C18            3.0330    -3.4833    -1.9913 C.3     
  19 C19           -7.1942     0.3020     0.4967 C.3     
  20 O20           -5.2548     0.2025    -0.9886 O.3     
  21 C21           -8.6354     2.4331     0.4171 C.3     
  22 C22           -9.0135     3.3214    -0.7736 C.3     
  23 O23           -7.8953     4.1086    -1.1711 O.3     
  24 N24           -6.6590     3.4384    -1.2744 N.2     
  25 C25           -9.7582     1.4714     0.7096 C.ar    
  26 C26          -10.5304     1.6365     1.8441 C.ar    
  27 C27          -11.8206    -0.2955     1.2471 C.ar    
  28 C28          -11.0490    -0.4557     0.1069 C.ar    
  29 C29          -10.0181     0.4288    -0.1599 C.ar    
  30 F30          -12.8268    -1.1579     1.5096 F       
  31 C31          -11.5620     0.7539     2.1148 C.ar    
  32 C32           -6.4754    -0.4421    -0.6314 C.3     
  33 F33          -12.3159     0.9152     3.2242 F       
  34 F34          -11.3026    -1.4746    -0.7432 F       
  35 C35           -8.3692     3.3045     1.6461 C.3     
  36 O36           -7.9930     2.4741     2.7465 O.3     
  37 C37           -7.2376     4.2875     1.3389 C.3     
  38 C38           -6.1712    -1.8701    -0.1739 C.3     
  39 H39           -1.7348    -1.5679    -2.2988 H       
  40 H40           -3.7909    -0.3365    -1.7586 H       
  41 H41           -1.4439     3.0817    -0.6454 H       
  42 H42           -3.9355     3.2463    -0.6049 H       
  43 H43            0.3186     3.9431    -1.3766 H       
  44 H44            0.4005     3.3453     0.2979 H       
  45 H45            1.8994     3.6579    -0.6098 H       
  46 H46            0.4752    -2.5426    -1.0120 H       
  47 H47            1.8044     0.7378    -3.3750 H       
  48 H48            2.7551    -4.1971    -2.7668 H       
  49 H49            4.1023    -3.2802    -2.0507 H       
  50 H50            2.7961    -3.8998    -1.0123 H       
  51 H51           -6.5763     0.2946     1.3946 H       
  52 H52           -8.1484    -0.1826     0.7035 H       
  53 H53           -9.3285     2.6938    -1.6073 H       
  54 H54           -9.8349     3.9786    -0.4879 H       
  55 H55          -10.3286     2.4543     2.5199 H       
  56 H56           -9.4166     0.3043    -1.0483 H       
  57 H57           -7.1268    -0.4803    -1.5045 H       
  58 H58           -9.2725     3.8586     1.9012 H       
  59 H59           -7.8087     2.9607     3.5615 H       
  60 H60           -6.3343     3.7334     1.0838 H       
  61 H61           -7.5245     4.9210     0.4995 H       
  62 H62           -7.0480     4.9084     2.2145 H       
  63 H63           -5.5054    -1.8412     0.6886 H       
  64 H64           -7.1004    -2.3693     0.1010 H       
  65 H65           -5.6911    -2.4171    -0.9853 H       
@<TRIPOS>BOND
   1    1    2 ar
   2    1   11 1
   3    1    6 ar
   4    2    3 ar
   5    2   14 1
   6    3    4 ar
   7    3   39 1
   8    4    5 ar
   9    4   40 1
  10    5    6 ar
  11    5    8 1
  12    6   41 1
  13    7    8 2
  14    7   20 1
  15    7   10 1
  16    8   42 1
  17    9   10 1
  18    9   21 1
  19    9   19 1
  20   10   24 2
  21   11   12 1
  22   12   43 1
  23   12   44 1
  24   12   45 1
  25   13   14 1
  26   13   15 2
  27   13   46 1
  28   14   17 1
  29   15   16 1
  30   15   18 1
  31   16   17 2
  32   17   47 1
  33   18   48 1
  34   18   49 1
  35   18   50 1
  36   19   32 1
  37   19   51 1
  38   19   52 1
  39   20   32 1
  40   21   22 1
  41   21   25 1
  42   21   35 1
  43   22   23 1
  44   22   53 1
  45   22   54 1
  46   23   24 1
  47   25   26 ar
  48   25   29 ar
  49   26   31 ar
  50   26   55 1
  51   27   28 ar
  52   27   30 1
  53   27   31 ar
  54   28   29 ar
  55   28   34 1
  56   29   56 1
  57   31   33 1
  58   32   38 1
  59   32   57 1
  60   35   36 1
  61   35   37 1
  62   35   58 1
  63   36   59 1
  64   37   60 1
  65   37   61 1
  66   37   62 1
  67   38   63 1
  68   38   64 1
  69   38   65 1

#	End of record

