#	Name: ASD01410751
#	Creating user name:	WinNT
#	Creation time:	15. 06. 2019 19:18

#	Modifying user name:	WinNT
#	Modification time:	15. 06. 2019 19:18

#	Program:	/corina/corina34_cracker 3.40 0067  02.08.2006

@<TRIPOS>MOLECULE
ASD01410751
 112  119    0    0    0
SMALL
NO_CHARGES


@<TRIPOS>ATOM
   1 O1             1.8491     2.3310     1.7865 O.3     
   2 C2             0.1648    -0.3526     2.7778 C.3     
   3 C3             1.6108    -0.0280     2.3436 C.3     
   4 N4             2.2336     0.4775     3.5799 N.am    
   5 C5             1.7245    -0.3627     4.6719 C.3     
   6 C6             0.3580    -0.9105     4.2098 C.3     
   7 O7            -0.6360     0.8307     2.7986 O.3     
   8 C8             2.6757    -1.5022     4.9323 C.2     
   9 O9             3.6873    -1.6107     4.2721 O.2     
  10 N10            2.4022    -2.4008     5.8988 N.am    
  11 C11            1.6292     1.0274     1.2504 C.3     
  12 C12            3.1011     2.4697     2.4749 C.3     
  13 C13            3.0534     1.5400     3.6725 C.2     
  14 O14            3.7208     1.7447     4.6643 O.2     
  15 C15            3.2599    -3.5760     6.0703 C.3     
  16 C16            3.2525    -4.5584     4.9276 C.2     
  17 N17            2.3958    -4.3913     3.9007 N.am    
  18 O18            4.0176    -5.4995     4.9320 O.2     
  19 S19            2.4768    -5.3916     2.5835 S.o2    
  20 C20            2.0374    -7.0284     3.2304 C.3     
  21 C21            4.5741    -3.3866     6.8306 C.3     
  22 C22            3.4125    -4.1389     7.4848 C.3     
  23 C23            2.1329    -8.2162     2.2709 C.3     
  24 C24            3.1642    -8.0512     3.3890 C.3     
  25 O25            1.4610    -4.9097     1.7145 O.2     
  26 O26            3.8449    -5.3574     2.2011 O.2     
  27 C27            5.7800    -4.2095     6.3729 C.3     
  28 C28            7.0165    -3.7889     7.1698 C.3     
  29 C29           -1.9785     0.6675     2.6975 C.ar    
  30 C30           -2.8473     1.7837     2.6924 C.ar    
  31 C31           -2.5289    -0.5829     2.5918 C.ar    
  32 C32           -3.9195    -0.7248     2.4886 C.ar    
  33 N33           -4.7235     0.3251     2.4899 N.ar    
  34 C34           -4.2436     1.5691     2.5851 C.ar    
  35 C35           -4.5006    -2.0789     2.3751 C.2     
  36 C36           -5.1088     2.6772     2.5860 C.ar    
  37 C37           -4.5866     3.9476     2.6856 C.ar    
  38 C38           -3.2067     4.1470     2.7854 C.ar    
  39 C39           -2.3484     3.0906     2.7919 C.ar    
  40 Cl40          -6.8247     2.4456     2.4616 Cl      
  41 O41           -5.4220     5.0191     2.6865 O.3     
  42 C42           -4.8202     6.3109     2.7925 C.3     
  43 N43           -5.7704    -2.3504     2.2732 N.2     
  44 C44           -6.1052    -3.6146     2.1815 C.2     
  45 C45           -5.0918    -4.4899     2.2036 C.2     
  46 S46           -3.5863    -3.5847     2.3485 S.3     
  47 C47           -7.5411    -4.0555     2.0594 C.3     
  48 C48           -7.8919    -4.2475     0.5826 C.3     
  49 C49           -7.7339    -5.3774     2.8054 C.3     
  50 C50           -5.9103     7.3843     2.7769 C.3     
  51 C51            3.2822     3.9151     2.9428 C.3     
  52 C52            3.3288     4.8427     1.7270 C.3     
  53 C53            2.1090     4.3110     3.8417 C.3     
  54 N54           -6.7497     7.2472     3.9746 N.3     
  55 C55           -7.6548     8.3967     4.1180 C.3     
  56 C56           -5.9246     7.0803     5.1799 C.3     
  57 C57           -6.8372     6.8817     6.3930 C.3     
  58 O58           -7.7306     7.9934     6.4982 O.3     
  59 C59           -8.5501     8.1849     5.3418 C.3     
  60 H60           -0.2759    -1.1045     2.1231 H       
  61 H61            2.1165    -0.9342     2.0103 H       
  62 H62            1.6009     0.2344     5.5754 H       
  63 H63           -0.4352    -0.5521     4.8659 H       
  64 H64            0.3730    -2.0002     4.1928 H       
  65 H65            1.6374    -2.2695     6.4809 H       
  66 H66            0.6735     1.0142     0.7264 H       
  67 H67            2.4252     0.7940     0.5433 H       
  68 H68            3.9214     2.1855     1.8158 H       
  69 H69            1.7317    -3.6850     3.9332 H       
  70 H70            1.2370    -7.0421     3.9702 H       
  71 H71            4.8005    -2.3876     7.2032 H       
  72 H72            2.8750    -3.6347     8.2879 H       
  73 H73            3.5079    -5.2197     7.5889 H       
  74 H74            1.3956    -9.0117     2.3797 H       
  75 H75            2.4598    -8.0142     1.2509 H       
  76 H76            4.1695    -7.7405     3.1046 H       
  77 H77            3.1053    -8.7380     4.2334 H       
  78 H78            5.5823    -5.2682     6.5407 H       
  79 H79            5.9559    -4.0366     5.3111 H       
  80 H80            7.8756    -4.3751     6.8437 H       
  81 H81            7.2142    -2.7302     7.0019 H       
  82 H82            6.8406    -3.9618     8.2315 H       
  83 H83           -1.8934    -1.4561     2.5877 H       
  84 H84           -2.8171     5.1513     2.8623 H       
  85 H85           -1.2844     3.2587     2.8699 H       
  86 H86           -4.2601     6.3754     3.7254 H       
  87 H87           -4.1445     6.4670     1.9515 H       
  88 H88           -5.1812    -5.5642     2.1391 H       
  89 H89           -8.1924    -3.2960     2.4918 H       
  90 H90           -8.9304    -4.5664     0.4943 H       
  91 H91           -7.7545    -3.3058     0.0511 H       
  92 H92           -7.2405    -5.0071     0.1502 H       
  93 H93           -7.4841    -5.2406     3.8575 H       
  94 H94           -8.7725    -5.6963     2.7171 H       
  95 H95           -7.0826    -6.1369     2.3730 H       
  96 H96           -5.4482     8.3714     2.7681 H       
  97 H97           -6.5263     7.2636     1.8857 H       
  98 H98            4.2138     4.0019     3.5020 H       
  99 H99            4.1646     4.5607     1.0867 H       
 100 H100           2.3972     4.7559     1.1678 H       
 101 H101           3.4579     5.8725     2.0604 H       
 102 H102           2.0758     3.6501     4.7078 H       
 103 H103           2.2381     5.3407     4.1751 H       
 104 H104           1.1774     4.2242     3.2825 H       
 105 H105          -7.0694     9.3069     4.2485 H       
 106 H106          -8.2739     8.4862     3.2253 H       
 107 H107          -5.2807     6.2087     5.0623 H       
 108 H108          -5.3115     7.9694     5.3273 H       
 109 H109          -7.4116     5.9635     6.2699 H       
 110 H110          -6.2317     6.8146     7.2969 H       
 111 H111          -9.1833     9.0604     5.4854 H       
 112 H112          -9.1742     7.3047     5.1882 H       
@<TRIPOS>BOND
   1    1   11 1
   2    1   12 1
   3    2    3 1
   4    2    7 1
   5    2    6 1
   6    2   60 1
   7    3    4 1
   8    3   11 1
   9    3   61 1
  10    4    5 1
  11    4   13 am
  12    5    6 1
  13    5    8 1
  14    5   62 1
  15    6   63 1
  16    6   64 1
  17    7   29 1
  18    8    9 2
  19    8   10 am
  20   10   15 1
  21   10   65 1
  22   11   66 1
  23   11   67 1
  24   12   13 1
  25   12   51 1
  26   12   68 1
  27   13   14 2
  28   15   16 1
  29   15   21 1
  30   15   22 1
  31   16   17 am
  32   16   18 2
  33   17   19 am
  34   17   69 1
  35   19   20 1
  36   19   25 2
  37   19   26 2
  38   20   23 1
  39   20   24 1
  40   20   70 1
  41   21   22 1
  42   21   27 1
  43   21   71 1
  44   22   72 1
  45   22   73 1
  46   23   24 1
  47   23   74 1
  48   23   75 1
  49   24   76 1
  50   24   77 1
  51   27   28 1
  52   27   78 1
  53   27   79 1
  54   28   80 1
  55   28   81 1
  56   28   82 1
  57   29   30 ar
  58   29   31 ar
  59   30   34 ar
  60   30   39 ar
  61   31   32 ar
  62   31   83 1
  63   32   33 ar
  64   32   35 1
  65   33   34 ar
  66   34   36 ar
  67   35   43 2
  68   35   46 1
  69   36   37 ar
  70   36   40 1
  71   37   38 ar
  72   37   41 1
  73   38   39 ar
  74   38   84 1
  75   39   85 1
  76   41   42 1
  77   42   50 1
  78   42   86 1
  79   42   87 1
  80   43   44 1
  81   44   45 2
  82   44   47 1
  83   45   46 1
  84   45   88 1
  85   47   48 1
  86   47   49 1
  87   47   89 1
  88   48   90 1
  89   48   91 1
  90   48   92 1
  91   49   93 1
  92   49   94 1
  93   49   95 1
  94   50   54 1
  95   50   96 1
  96   50   97 1
  97   51   52 1
  98   51   53 1
  99   51   98 1
 100   52   99 1
 101   52  100 1
 102   52  101 1
 103   53  102 1
 104   53  103 1
 105   53  104 1
 106   54   55 1
 107   54   56 1
 108   55   59 1
 109   55  105 1
 110   55  106 1
 111   56   57 1
 112   56  107 1
 113   56  108 1
 114   57   58 1
 115   57  109 1
 116   57  110 1
 117   58   59 1
 118   59  111 1
 119   59  112 1

#	End of record

