#	Name: ASD06660235
#	Creating user name:	WinNT
#	Creation time:	15. 06. 2019 21:08

#	Modifying user name:	WinNT
#	Modification time:	15. 06. 2019 21:08

#	Program:	/corina/corina34_cracker 3.40 0067  02.08.2006

@<TRIPOS>MOLECULE
ASD06660235
  69   72    0    0    0
SMALL
NO_CHARGES


@<TRIPOS>ATOM
   1 C1            -0.0184     1.5028     0.0103 C.2     
   2 C2             0.0021    -0.0041     0.0020 C.3     
   3 C3            -0.7241    -0.5171    -1.2431 C.3     
   4 O4             1.0197     2.1211     0.0037 O.2     
   5 O5            -1.1898     2.1580     0.0194 O.3     
   6 C6             2.0717    -0.5994     1.1419 C.2     
   7 C7             3.4721    -1.0732     1.1260 C.ar    
   8 C8             3.7517    -2.4373     1.2212 C.ar    
   9 C9             5.0606    -2.8728     1.2053 C.ar    
  10 C10            6.0951    -1.9606     1.0957 C.ar    
  11 C11            5.8249    -0.6070     1.0009 C.ar    
  12 C12            4.5202    -0.1587     1.0099 C.ar    
  13 O13            1.5355    -0.3233     2.1972 O.2     
  14 N14            1.3897    -0.4735    -0.0138 N.am    
  15 C15            4.2274     1.3155     0.9003 C.3     
  16 C16            7.5225    -2.4435     1.0799 C.3     
  17 C17            2.6262    -3.4322     1.3416 C.3     
  18 C18           -0.8113    -2.0207    -1.1900 C.ar    
  19 C19           -1.8994    -2.6267    -0.5878 C.ar    
  20 C20           -1.9848    -4.0029    -0.5356 C.ar    
  21 C21           -0.9712    -4.7833    -1.0920 C.ar    
  22 C22            0.1231    -4.1662    -1.6982 C.ar    
  23 C23            0.1944    -2.7891    -1.7486 C.ar    
  24 O24           -0.0550    -6.9737    -1.5889 O.3     
  25 C25           -1.0564    -6.2598    -1.0390 C.2     
  26 N26           -2.0831    -6.7884    -0.4695 N.2     
  27 C27           -2.2773    -8.2306    -0.3427 C.3     
  28 C28           -1.3724    -8.9646    -1.3375 C.3     
  29 C29            0.0352    -8.3587    -1.2394 C.3     
  30 C30           -1.3198   -10.4530    -0.9871 C.3     
  31 N31           -0.5513   -11.1684    -2.0088 N.pl3   
  32 C32           -0.3661   -12.5420    -1.9042 C.ar    
  33 C33           -0.9132   -13.2315    -0.8266 C.ar    
  34 C34           -0.7211   -14.5980    -0.7351 C.ar    
  35 C35            0.0144   -15.2319    -1.7280 C.ar    
  36 C36            0.5285   -14.4858    -2.7692 C.ar    
  37 N37            0.3248   -13.1835    -2.8338 N.ar    
  38 H38           -0.4983    -0.3791     0.8948 H       
  39 H39           -1.7288    -0.0959    -1.2772 H       
  40 H40           -0.1736    -0.2164    -2.1345 H       
  41 H41           -1.1523     3.1243     0.0245 H       
  42 H42            5.2783    -3.9281     1.2788 H       
  43 H43            6.6369     0.0999     0.9156 H       
  44 H44            1.8177    -0.6938    -0.8559 H       
  45 H45            4.1969     1.7550     1.8973 H       
  46 H46            5.0092     1.7986     0.3141 H       
  47 H47            3.2645     1.4593     0.4103 H       
  48 H48            7.8285    -2.6396     0.0523 H       
  49 H49            8.1692    -1.6799     1.5121 H       
  50 H50            7.6024    -3.3604     1.6640 H       
  51 H51            2.3155    -3.7516     0.3468 H       
  52 H52            2.9653    -4.2973     1.9115 H       
  53 H53            1.7836    -2.9674     1.8536 H       
  54 H54           -2.6835    -2.0214    -0.1574 H       
  55 H55           -2.8344    -4.4748    -0.0646 H       
  56 H56            0.9111    -4.7650    -2.1304 H       
  57 H57            1.0392    -2.3102    -2.2212 H       
  58 H58           -2.0284    -8.5420     0.6718 H       
  59 H59           -3.3188    -8.4757    -0.5510 H       
  60 H60           -1.7581    -8.8374    -2.3490 H       
  61 H61            0.7060    -8.8701    -1.9297 H       
  62 H62            0.4084    -8.4581    -0.2201 H       
  63 H63           -0.8408   -10.5810    -0.0163 H       
  64 H64           -2.3329   -10.8531    -0.9479 H       
  65 H65           -0.1718   -10.6834    -2.7583 H       
  66 H66           -1.4798   -12.7066    -0.0718 H       
  67 H67           -1.1336   -15.1595     0.0902 H       
  68 H68            0.1828   -16.2979    -1.6856 H       
  69 H69            1.1011   -14.9748    -3.5434 H       
@<TRIPOS>BOND
   1    1    2 1
   2    1    4 2
   3    1    5 1
   4    2    3 1
   5    2   14 1
   6    2   38 1
   7    3   18 1
   8    3   39 1
   9    3   40 1
  10    5   41 1
  11    6    7 1
  12    6   13 2
  13    6   14 am
  14    7    8 ar
  15    7   12 ar
  16    8    9 ar
  17    8   17 1
  18    9   10 ar
  19    9   42 1
  20   10   11 ar
  21   10   16 1
  22   11   12 ar
  23   11   43 1
  24   12   15 1
  25   14   44 1
  26   15   45 1
  27   15   46 1
  28   15   47 1
  29   16   48 1
  30   16   49 1
  31   16   50 1
  32   17   51 1
  33   17   52 1
  34   17   53 1
  35   18   19 ar
  36   18   23 ar
  37   19   20 ar
  38   19   54 1
  39   20   21 ar
  40   20   55 1
  41   21   22 ar
  42   21   25 1
  43   22   23 ar
  44   22   56 1
  45   23   57 1
  46   24   25 1
  47   24   29 1
  48   25   26 2
  49   26   27 1
  50   27   28 1
  51   27   58 1
  52   27   59 1
  53   28   29 1
  54   28   30 1
  55   28   60 1
  56   29   61 1
  57   29   62 1
  58   30   31 1
  59   30   63 1
  60   30   64 1
  61   31   32 1
  62   31   65 1
  63   32   33 ar
  64   32   37 ar
  65   33   34 ar
  66   33   66 1
  67   34   35 ar
  68   34   67 1
  69   35   36 ar
  70   35   68 1
  71   36   37 ar
  72   36   69 1

#	End of record

