#	Name: ASD05740254
#	Creating user name:	WinNT
#	Creation time:	15. 06. 2019 21:03

#	Modifying user name:	WinNT
#	Modification time:	15. 06. 2019 21:03

#	Program:	/corina/corina34_cracker 3.40 0067  02.08.2006

@<TRIPOS>MOLECULE
ASD05740254
  61   64    0    0    0
SMALL
NO_CHARGES


@<TRIPOS>ATOM
   1 C1            -0.0174     1.3909    -0.0580 C.ar    
   2 C2             0.0012    -0.0016    -0.0582 C.ar    
   3 N3             1.1109     2.0858    -0.0597 N.ar    
   4 C4             2.2886     1.4956    -0.0618 C.ar    
   5 C5             2.3872     0.1061    -0.0626 C.ar    
   6 C6             1.2146    -0.6595    -0.0603 C.ar    
   7 C7             3.7144    -0.5529    -0.0659 C.ar    
   8 C8             4.8843     0.2063     0.0368 C.ar    
   9 N9             3.8114    -1.8772    -0.1612 N.ar    
  10 C10            4.9963    -2.4677    -0.1643 C.ar    
  11 N11            6.1209    -1.7725    -0.0733 N.ar    
  12 C12            6.0999    -0.4526     0.0294 C.ar    
  13 N13            5.0624    -3.8474    -0.2648 N.pl3   
  14 N14           -1.2333     2.0594    -0.0618 N.pl3   
  15 C15            6.3052    -4.4821    -0.3885 C.ar    
  16 C16            6.5122    -5.7235     0.1981 C.ar    
  17 C17            7.3281    -3.8722    -1.1025 C.ar    
  18 C18            8.5531    -4.4976    -1.2245 C.ar    
  19 C19            8.7620    -5.7366    -0.6331 C.ar    
  20 C20            7.7373    -6.3489     0.0765 C.ar    
  21 N21           10.0034    -6.3708    -0.7571 N.3     
  22 C22           11.3507    -8.3596    -0.2847 C.3     
  23 N23           12.4343    -7.4968     0.2064 N.3     
  24 C24           12.4314    -6.2037    -0.4918 C.3     
  25 C25           11.0870    -5.5080    -0.2661 C.3     
  26 C26           13.7373    -8.1625     0.0762 C.3     
  27 C27           10.0063    -7.6639    -0.0590 C.3     
  28 C28           -2.4845     1.3048     0.0447 C.3     
  29 C29           -2.8641     1.1520     1.5189 C.3     
  30 C30           -1.2659     3.5199    -0.1721 C.3     
  31 N31           -4.1187     0.3953     1.6256 N.3     
  32 H32           -0.9231    -0.5602    -0.0564 H       
  33 H33            3.1869     2.0951    -0.0631 H       
  34 H34            1.2586    -1.7386    -0.0606 H       
  35 H35            4.8394     1.2822     0.1197 H       
  36 H36            7.0227     0.1038     0.1026 H       
  37 H37            4.2481    -4.3743    -0.2495 H       
  38 H38            5.7152    -6.1998     0.7497 H       
  39 H39            7.1655    -2.9088    -1.5628 H       
  40 H40            9.3486    -4.0234    -1.7802 H       
  41 H41            7.8998    -7.3123     0.5368 H       
  42 H42           11.4891    -8.5467    -1.3496 H       
  43 H43           11.3659    -9.3058     0.2561 H       
  44 H44           13.2345    -5.5782    -0.1020 H       
  45 H45           12.5821    -6.3663    -1.5590 H       
  46 H46           11.0718    -4.5618    -0.8069 H       
  47 H47           10.9486    -5.3209     0.7988 H       
  48 H48           13.9235    -8.3948    -0.9724 H       
  49 H49           14.5213    -7.5021     0.4468 H       
  50 H50           13.7340    -9.0845     0.6576 H       
  51 H51            9.8556    -7.5013     1.0083 H       
  52 H52            9.2032    -8.2894    -0.4488 H       
  53 H53           -3.2764     1.8384    -0.4810 H       
  54 H54           -2.3531     0.3187    -0.4008 H       
  55 H55           -2.0722     0.6185     2.0446 H       
  56 H56           -2.9955     2.1381     1.9644 H       
  57 H57           -1.3138     3.8038    -1.2234 H       
  58 H58           -2.1431     3.9042     0.3484 H       
  59 H59           -0.3649     3.9384     0.2765 H       
  60 H60           -4.0426    -0.4981     1.1629 H       
  61 H61           -4.3910     0.2808     2.5904 H       
@<TRIPOS>BOND
   1    1    2 ar
   2    1    3 ar
   3    1   14 1
   4    2    6 ar
   5    2   32 1
   6    3    4 ar
   7    4    5 ar
   8    4   33 1
   9    5    6 ar
  10    5    7 1
  11    6   34 1
  12    7    8 ar
  13    7    9 ar
  14    8   12 ar
  15    8   35 1
  16    9   10 ar
  17   10   11 ar
  18   10   13 1
  19   11   12 ar
  20   12   36 1
  21   13   15 1
  22   13   37 1
  23   14   28 1
  24   14   30 1
  25   15   16 ar
  26   15   17 ar
  27   16   20 ar
  28   16   38 1
  29   17   18 ar
  30   17   39 1
  31   18   19 ar
  32   18   40 1
  33   19   20 ar
  34   19   21 1
  35   20   41 1
  36   21   27 1
  37   21   25 1
  38   22   23 1
  39   22   27 1
  40   22   42 1
  41   22   43 1
  42   23   24 1
  43   23   26 1
  44   24   25 1
  45   24   44 1
  46   24   45 1
  47   25   46 1
  48   25   47 1
  49   26   48 1
  50   26   49 1
  51   26   50 1
  52   27   51 1
  53   27   52 1
  54   28   29 1
  55   28   53 1
  56   28   54 1
  57   29   31 1
  58   29   55 1
  59   29   56 1
  60   30   57 1
  61   30   58 1
  62   30   59 1
  63   31   60 1
  64   31   61 1

#	End of record

