#	Name: ASD01915454
#	Creating user name:	WinNT
#	Creation time:	15. 06. 2019 20:05

#	Modifying user name:	WinNT
#	Modification time:	15. 06. 2019 20:05

#	Program:	/corina/corina34_cracker 3.40 0067  02.08.2006

@<TRIPOS>MOLECULE
ASD01915454
  37   39    0    0    0
SMALL
NO_CHARGES


@<TRIPOS>ATOM
   1 C1            -0.4110     1.7408     0.1046 C.ar    
   2 C2            -0.5440     0.3906     0.3733 C.ar    
   3 N3             0.4991    -0.3397     0.7066 N.ar    
   4 C4             1.7171     0.1817     0.7997 C.ar    
   5 C5             1.9307     1.5325     0.5445 C.ar    
   6 C6             0.8470     2.3316     0.1895 C.ar    
   7 C7            -1.9032    -0.2539     0.2834 C.3     
   8 O8             1.0129     3.6541    -0.0676 O.3     
   9 C9             2.2646     4.1725     0.0384 C.ar    
  10 C10            3.1949     3.9766    -0.9721 C.ar    
  11 N11            4.4106     4.4770    -0.8749 N.ar    
  12 C12            4.7916     5.1781     0.1745 C.ar    
  13 C13            3.9197     5.4168     1.2239 C.ar    
  14 C14            2.6292     4.9119     1.1590 C.ar    
  15 C15            2.8585    -0.6830     1.1791 C.2     
  16 N16            2.6584    -1.9924     1.4280 N.am    
  17 O17            3.9752    -0.2117     1.2659 O.2     
  18 C18            3.7449    -2.8274     1.6817 C.ar    
  19 C19            3.5435    -4.1957     1.8222 C.ar    
  20 C20            4.6308    -5.0141     2.0735 C.ar    
  21 C21            5.8880    -4.4325     2.1758 C.ar    
  22 C22            6.0144    -3.0643     2.0249 C.ar    
  23 N23            4.9596    -2.3107     1.7810 N.ar    
  24 F24            4.3196     6.1364     2.2951 F       
  25 Cl25           7.2854    -5.4133     2.4905 Cl      
  26 H26           -1.2730     2.3296    -0.1723 H       
  27 H27            2.9217     1.9550     0.6210 H       
  28 H28           -2.0641    -0.6229    -0.7295 H       
  29 H29           -1.9582    -1.0854     0.9861 H       
  30 H30           -2.6704     0.4804     0.5288 H       
  31 H31            2.9201     3.4075    -1.8479 H       
  32 H32            5.7967     5.5711     0.2167 H       
  33 H33            1.9274     5.0820     1.9621 H       
  34 H34            1.7581    -2.3535     1.4307 H       
  35 H35            2.5516    -4.6144     1.7369 H       
  36 H36            4.5047    -6.0806     2.1877 H       
  37 H37            6.9897    -2.6071     2.1035 H       
@<TRIPOS>BOND
   1    1    2 ar
   2    1    6 ar
   3    1   26 1
   4    2    3 ar
   5    2    7 1
   6    3    4 ar
   7    4    5 ar
   8    4   15 1
   9    5    6 ar
  10    5   27 1
  11    6    8 1
  12    7   28 1
  13    7   29 1
  14    7   30 1
  15    8    9 1
  16    9   10 ar
  17    9   14 ar
  18   10   11 ar
  19   10   31 1
  20   11   12 ar
  21   12   13 ar
  22   12   32 1
  23   13   14 ar
  24   13   24 1
  25   14   33 1
  26   15   16 am
  27   15   17 2
  28   16   18 1
  29   16   34 1
  30   18   19 ar
  31   18   23 ar
  32   19   20 ar
  33   19   35 1
  34   20   21 ar
  35   20   36 1
  36   21   22 ar
  37   21   25 1
  38   22   23 ar
  39   22   37 1

#	End of record

