#	Name: ASD01810679
#	Creating user name:	WinNT
#	Creation time:	15. 06. 2019 19:25

#	Modifying user name:	WinNT
#	Modification time:	15. 06. 2019 19:25

#	Program:	/corina/corina34_cracker 3.40 0067  02.08.2006

@<TRIPOS>MOLECULE
ASD01810679
  62   66    0    0    0
SMALL
NO_CHARGES


@<TRIPOS>ATOM
   1 C1            -0.1766     1.9863     0.5173 C.ar    
   2 C2             0.0705     0.6123     0.5314 C.ar    
   3 C3            -0.9734    -0.2818     0.3962 C.ar    
   4 C4            -2.2671     0.1759     0.2458 C.ar    
   5 C5            -2.5282     1.5480     0.2295 C.ar    
   6 C6            -1.4802     2.4550     0.3717 C.ar    
   7 C7            -3.9143     2.0368     0.0675 C.2     
   8 N8            -4.4461     2.8707     0.9829 N.am    
   9 O9            -4.5740     1.6864    -0.8914 O.2     
  10 C10           -5.8482     3.2980     0.8812 C.3     
  11 C11           -3.6366     3.3651     2.1050 C.3     
  12 C12           -4.3712     3.0611     3.4145 C.3     
  13 C13           -5.7829     3.6487     3.3511 C.3     
  14 C14           -6.5534     2.9949     2.2070 C.3     
  15 C15           -6.4969     3.3811     4.6510 C.ar    
  16 C16           -6.9528     4.4394     5.4168 C.ar    
  17 C17           -7.6076     4.2017     6.6074 C.ar    
  18 C18           -7.8099     2.8893     7.0392 C.ar    
  19 C19           -7.3471     1.8260     6.2614 C.ar    
  20 C20           -6.6986     2.0780     5.0703 C.ar    
  21 C21            0.9429     2.9423     0.6629 C.2     
  22 N22            2.1885     2.6142     0.9139 N.2     
  23 C23            2.9454     3.7236     0.9818 C.ar    
  24 C24            2.0985     4.8238     0.7544 C.ar    
  25 N25            0.8372     4.3008     0.5503 N.pl3   
  26 C26            4.3065     3.9734     1.2168 C.ar    
  27 C27            4.7512     5.2628     1.2154 C.ar    
  28 N28            3.9305     6.2788     0.9987 N.ar    
  29 C29            2.6394     6.1064     0.7713 C.ar    
  30 C30            1.4797     0.1035     0.6941 C.3     
  31 C31           -3.4000    -0.8069     0.0984 C.3     
  32 C32           -8.4884     2.6350     8.2744 C.1     
  33 N33           -9.0266     2.4333     9.2542 N.1     
  34 O34            1.8402     7.1816     0.5548 O.3     
  35 C35            2.4610     8.4683     0.5870 C.3     
  36 H36           -0.7768    -1.3436     0.4078 H       
  37 H37           -1.6766     3.5169     0.3599 H       
  38 H38           -5.8904     4.3687     0.6814 H       
  39 H39           -6.3384     2.7539     0.0739 H       
  40 H40           -2.6680     2.8652     2.1049 H       
  41 H41           -3.4947     4.4413     2.0070 H       
  42 H42           -4.4323     1.9820     3.5554 H       
  43 H43           -3.8286     3.5071     4.2480 H       
  44 H44           -5.7214     4.7243     3.1855 H       
  45 H45           -7.5667     3.3954     2.1751 H       
  46 H46           -6.5926     1.9170     2.3639 H       
  47 H47           -6.7954     5.4540     5.0817 H       
  48 H48           -7.9627     5.0287     7.2044 H       
  49 H49           -7.4999     0.8085     6.5898 H       
  50 H50           -6.3401     1.2566     4.4677 H       
  51 H51            0.0277     4.8028     0.3671 H       
  52 H52            4.9908     3.1574     1.3962 H       
  53 H53            5.7977     5.4597     1.3958 H       
  54 H54            1.7339     0.0700     1.7535 H       
  55 H55            1.5556    -0.8979     0.2704 H       
  56 H56            2.1689     0.7705     0.1761 H       
  57 H57           -3.7391    -1.1212     1.0855 H       
  58 H58           -4.2243    -0.3338    -0.4354 H       
  59 H59           -3.0561    -1.6765    -0.4615 H       
  60 H60            2.9108     8.6303     1.5666 H       
  61 H61            3.2335     8.5184    -0.1803 H       
  62 H62            1.7121     9.2378     0.3994 H       
@<TRIPOS>BOND
   1    1    2 ar
   2    1   21 1
   3    1    6 ar
   4    2    3 ar
   5    2   30 1
   6    3    4 ar
   7    3   36 1
   8    4    5 ar
   9    4   31 1
  10    5    6 ar
  11    5    7 1
  12    6   37 1
  13    7    8 am
  14    7    9 2
  15    8   10 1
  16    8   11 1
  17   10   14 1
  18   10   38 1
  19   10   39 1
  20   11   12 1
  21   11   40 1
  22   11   41 1
  23   12   13 1
  24   12   42 1
  25   12   43 1
  26   13   14 1
  27   13   15 1
  28   13   44 1
  29   14   45 1
  30   14   46 1
  31   15   16 ar
  32   15   20 ar
  33   16   17 ar
  34   16   47 1
  35   17   18 ar
  36   17   48 1
  37   18   19 ar
  38   18   32 1
  39   19   20 ar
  40   19   49 1
  41   20   50 1
  42   21   22 2
  43   21   25 1
  44   22   23 1
  45   23   24 ar
  46   23   26 ar
  47   24   25 1
  48   24   29 ar
  49   25   51 1
  50   26   27 ar
  51   26   52 1
  52   27   28 ar
  53   27   53 1
  54   28   29 ar
  55   29   34 1
  56   30   54 1
  57   30   55 1
  58   30   56 1
  59   31   57 1
  60   31   58 1
  61   31   59 1
  62   32   33 3
  63   34   35 1
  64   35   60 1
  65   35   61 1
  66   35   62 1

#	End of record

