#	Name: ASD01140135
#	Creating user name:	WinNT
#	Creation time:	15. 06. 2019 19:00

#	Modifying user name:	WinNT
#	Modification time:	15. 06. 2019 19:00

#	Program:	/corina/corina34_cracker 3.40 0067  02.08.2006

@<TRIPOS>MOLECULE
ASD01140135
  25   26    0    0    0
SMALL
NO_CHARGES


@<TRIPOS>ATOM
   1 C1            -0.0166     1.3755     0.0096 C.ar    
   2 C2             0.0021    -0.0041     0.0020 C.ar    
   3 C3             1.2192    -0.6822    -0.0133 C.ar    
   4 C4             2.4128     0.0368    -0.0209 C.ar    
   5 C5             2.3850     1.4162    -0.0132 C.ar    
   6 C6             1.1725     2.0865     0.0021 C.ar    
   7 C7             1.2443    -2.1660    -0.0210 C.ar    
   8 C8             0.0494    -2.8845    -0.0129 C.ar    
   9 C9             0.0696    -4.2660    -0.0206 C.ar    
  10 C10            1.2713    -4.9443    -0.0362 C.ar    
  11 C11            2.4755    -4.2360    -0.0444 C.ar    
  12 C12            2.4598    -2.8420    -0.0421 C.ar    
  13 C13            3.7620    -4.9623    -0.0607 C.2     
  14 O14            4.8080    -4.3449    -0.0678 O.2     
  15 O15            3.7749    -6.3093    -0.0676 O.3     
  16 F16            1.1497     3.4373     0.0095 F       
  17 H17           -0.9596     1.9020     0.0169 H       
  18 H18           -0.9253    -0.5575     0.0083 H       
  19 H19            3.3584    -0.4850    -0.0324 H       
  20 H20            3.3096     1.9743    -0.0191 H       
  21 H21           -0.8944    -2.3597    -0.0003 H       
  22 H22           -0.8591    -4.8173    -0.0139 H       
  23 H23            1.2808    -6.0243    -0.0418 H       
  24 H24            3.3876    -2.2892    -0.0488 H       
  25 H25            4.6407    -6.7400    -0.0782 H       
@<TRIPOS>BOND
   1    1    2 ar
   2    1    6 ar
   3    1   17 1
   4    2    3 ar
   5    2   18 1
   6    3    4 ar
   7    3    7 1
   8    4    5 ar
   9    4   19 1
  10    5    6 ar
  11    5   20 1
  12    6   16 1
  13    7    8 ar
  14    7   12 ar
  15    8    9 ar
  16    8   21 1
  17    9   10 ar
  18    9   22 1
  19   10   11 ar
  20   10   23 1
  21   11   12 ar
  22   11   13 1
  23   12   24 1
  24   13   14 2
  25   13   15 1
  26   15   25 1

#	End of record

