#	Name: ASD01918280
#	Creating user name:	WinNT
#	Creation time:	15. 06. 2019 20:11

#	Modifying user name:	WinNT
#	Modification time:	15. 06. 2019 20:11

#	Program:	/corina/corina34_cracker 3.40 0067  02.08.2006

@<TRIPOS>MOLECULE
ASD01918280
  44   47    0    0    0
SMALL
NO_CHARGES


@<TRIPOS>ATOM
   1 F1            -0.0268     0.0384     0.1198 F       
   2 C2            -0.0376     1.3893     0.1308 C.ar    
   3 C3            -1.2418     2.0717     0.1737 C.ar    
   4 C4            -1.2549     3.4541     0.1850 C.ar    
   5 C5            -0.0668     4.1581     0.1540 C.ar    
   6 C6             1.1418     3.4776     0.1114 C.ar    
   7 O7             2.3113     4.1692     0.0813 O.3     
   8 C8             3.5169     3.4033     0.0381 C.3     
   9 C9             4.7022     4.3336     0.0094 C.2     
  10 N10            5.3351     4.7896     1.0556 N.2     
  11 C11            6.3294     5.5857     0.6404 C.2     
  12 C12            7.3232     6.3428     1.4844 C.3     
  13 C13            8.5138     6.7459     0.6055 C.3     
  14 N14            8.0124     7.2894    -0.6657 N.am    
  15 C15            7.2614     6.3914    -1.5619 C.3     
  16 C16            6.2966     5.6086    -0.7059 C.2     
  17 O17            5.2835     4.8244    -1.0967 O.3     
  18 C18            8.2333     8.5756    -1.0025 C.2     
  19 O19            8.7576     9.3308    -0.2072 O.2     
  20 C20            7.8382     9.0677    -2.3385 C.ar    
  21 C21            7.3709    10.3760    -2.4921 C.ar    
  22 C22            7.0007    10.8387    -3.7375 C.ar    
  23 C23            7.0890    10.0116    -4.8439 C.ar    
  24 F24            6.7243    10.4713    -6.0608 F       
  25 C25            7.5566     8.6988    -4.7033 C.ar    
  26 C26            7.9364     8.2299    -3.4476 C.ar    
  27 C27            7.6483     7.8427    -5.8475 C.1     
  28 N28            7.7210     7.1635    -6.7552 N.1     
  29 C29            1.1549     2.0910     0.1049 C.ar    
  30 H30           -2.1719     1.5234     0.1980 H       
  31 H31           -2.1953     3.9843     0.2178 H       
  32 H32           -0.0786     5.2380     0.1625 H       
  33 H33            3.5754     2.7675     0.9215 H       
  34 H34            3.5209     2.7821    -0.8576 H       
  35 H35            6.8505     7.2367     1.8915 H       
  36 H36            7.6695     5.7071     2.2993 H       
  37 H37            9.1048     7.5048     1.1183 H       
  38 H38            9.1338     5.8714     0.4085 H       
  39 H39            6.7122     6.9773    -2.2990 H       
  40 H40            7.9479     5.7103    -2.0649 H       
  41 H41            7.2991    11.0264    -1.6329 H       
  42 H42            6.6400    11.8504    -3.8499 H       
  43 H43            8.3013     7.2198    -3.3335 H       
  44 H44            2.0945     1.5593     0.0759 H       
@<TRIPOS>BOND
   1    1    2 1
   2    2   29 ar
   3    2    3 ar
   4    3    4 ar
   5    3   30 1
   6    4    5 ar
   7    4   31 1
   8    5    6 ar
   9    5   32 1
  10    6    7 1
  11    6   29 ar
  12    7    8 1
  13    8    9 1
  14    8   33 1
  15    8   34 1
  16    9   17 1
  17    9   10 2
  18   10   11 1
  19   11   16 2
  20   11   12 1
  21   12   13 1
  22   12   35 1
  23   12   36 1
  24   13   14 1
  25   13   37 1
  26   13   38 1
  27   14   15 1
  28   14   18 am
  29   15   16 1
  30   15   39 1
  31   15   40 1
  32   16   17 1
  33   18   19 2
  34   18   20 1
  35   20   26 ar
  36   20   21 ar
  37   21   22 ar
  38   21   41 1
  39   22   23 ar
  40   22   42 1
  41   23   24 1
  42   23   25 ar
  43   25   26 ar
  44   25   27 1
  45   26   43 1
  46   27   28 3
  47   29   44 1

#	End of record

