#	Name: ASD08070091
#	Creating user name:	WinNT
#	Creation time:	15. 06. 2019 21:14

#	Modifying user name:	WinNT
#	Modification time:	15. 06. 2019 21:14

#	Program:	/corina/corina34_cracker 3.40 0067  02.08.2006

@<TRIPOS>MOLECULE
ASD08070091
  44   44    0    0    0
SMALL
NO_CHARGES


@<TRIPOS>ATOM
   1 C1             0.7825     1.1375     1.0507 C.ar    
   2 C2             0.5924    -0.1971     0.7736 C.ar    
   3 C3             2.0740     1.6478     1.1602 C.ar    
   4 C4             3.1736     0.8097     0.9897 C.ar    
   5 C5             2.9911    -0.5152     0.7141 C.ar    
   6 C6             1.6981    -1.0359     0.6030 C.ar    
   7 C7             1.5009    -2.4667     0.3049 C.2     
   8 O8             2.4633    -3.1950     0.1556 O.2     
   9 C9             0.1177    -4.6072    -1.6111 C.3     
  10 C10            0.0582    -4.3886    -0.0980 C.3     
  11 N11            0.2541    -2.9672     0.1981 N.am    
  12 C12           -1.3069    -4.8358     0.4286 C.3     
  13 C13           -1.4637    -6.3438     0.2232 C.3     
  14 S14            2.3173     3.3566     1.5143 S.3     
  15 C15            0.6231     3.9923     1.6407 C.3     
  16 C16            4.5687     1.3670     1.1092 C.3     
  17 C17           -0.8935    -3.6882    -2.2994 C.3     
  18 C18            1.5254    -4.2868    -2.1178 C.3     
  19 C19           -1.4095    -4.5109     1.9202 C.3     
  20 H20           -0.0689     1.7895     1.1788 H       
  21 H21           -0.4078    -0.5954     0.6886 H       
  22 H22            3.8462    -1.1616     0.5823 H       
  23 H23           -0.1223    -5.6460    -1.8378 H       
  24 H24            0.8426    -4.9717     0.3845 H       
  25 H25           -0.5136    -2.3864     0.3172 H       
  26 H26           -2.0946    -4.3116    -0.1124 H       
  27 H27           -2.4362    -6.6624     0.5984 H       
  28 H28           -1.3906    -6.5753    -0.8394 H       
  29 H29           -0.6760    -6.8681     0.7643 H       
  30 H30            0.1028     3.8301     0.6968 H       
  31 H31            0.0975     3.4696     2.4398 H       
  32 H32            0.6509     5.0594     1.8615 H       
  33 H33            4.9021     1.2929     2.1442 H       
  34 H34            5.2431     0.7987     0.4686 H       
  35 H35            4.5699     2.4126     0.8011 H       
  36 H36           -0.6535    -2.6494    -2.0727 H       
  37 H37           -0.8512    -3.8440    -3.3774 H       
  38 H38           -1.8964    -3.9165    -1.9384 H       
  39 H39            2.2565    -4.8559    -1.5436 H       
  40 H40            1.6022    -4.5553    -3.1714 H       
  41 H41            1.7203    -3.2209    -1.9993 H       
  42 H42           -1.3885    -3.4300     2.0589 H       
  43 H43           -2.3436    -4.9099     2.3156 H       
  44 H44           -0.5694    -4.9614     2.4488 H       
@<TRIPOS>BOND
   1    1    2 ar
   2    1    3 ar
   3    1   20 1
   4    2    6 ar
   5    2   21 1
   6    3    4 ar
   7    3   14 1
   8    4    5 ar
   9    4   16 1
  10    5    6 ar
  11    5   22 1
  12    6    7 1
  13    7    8 2
  14    7   11 am
  15    9   10 1
  16    9   17 1
  17    9   18 1
  18    9   23 1
  19   10   12 1
  20   10   11 1
  21   10   24 1
  22   11   25 1
  23   12   13 1
  24   12   19 1
  25   12   26 1
  26   13   27 1
  27   13   28 1
  28   13   29 1
  29   14   15 1
  30   15   30 1
  31   15   31 1
  32   15   32 1
  33   16   33 1
  34   16   34 1
  35   16   35 1
  36   17   36 1
  37   17   37 1
  38   17   38 1
  39   18   39 1
  40   18   40 1
  41   18   41 1
  42   19   42 1
  43   19   43 1
  44   19   44 1

#	End of record

