#	Name: ASD01917669
#	Creating user name:	WinNT
#	Creation time:	15. 06. 2019 20:09

#	Modifying user name:	WinNT
#	Modification time:	15. 06. 2019 20:09

#	Program:	/corina/corina34_cracker 3.40 0067  02.08.2006

@<TRIPOS>MOLECULE
ASD01917669
  33   35    0    0    0
SMALL
NO_CHARGES


@<TRIPOS>ATOM
   1 C1            -0.0168     1.3877     0.0097 C.ar    
   2 C2             0.0021    -0.0041     0.0020 C.ar    
   3 C3             1.2203    -0.6831    -0.0133 C.ar    
   4 C4             2.4097     0.0236    -0.0208 C.ar    
   5 C5             2.3982     1.4060    -0.0128 C.ar    
   6 C6             1.1837     2.0961     0.0020 C.ar    
   7 C7            -1.2709    -0.7636     0.0106 C.ar    
   8 C8            -1.2400    -2.1585     0.0028 C.ar    
   9 C9            -2.4288    -2.8592     0.0108 C.ar    
  10 C10           -3.6301    -2.1340     0.0267 C.ar    
  11 C11           -3.5794    -0.7366     0.0337 C.ar    
  12 N12           -2.4247    -0.1074     0.0310 N.ar    
  13 C13           -4.8896    -2.8153     0.0350 C.1     
  14 C14           -5.9222    -3.3738     0.0419 C.1     
  15 C15           -7.1818    -4.0550     0.0503 C.2     
  16 C16            1.1720     3.5281     0.0093 C.1     
  17 N17            1.1627     4.6640     0.0152 N.1     
  18 S18           -9.6463    -4.6234     0.0710 S.3     
  19 C19           -8.4783    -5.8708     0.0576 C.2     
  20 N20           -7.2893    -5.3784     0.0495 N.2     
  21 C21           -8.3709    -3.4082     0.0656 C.2     
  22 C22           -8.7967    -7.3438     0.0547 C.3     
  23 F23            3.5866    -0.6397    -0.0356 F       
  24 H24           -0.9583     1.9169     0.0170 H       
  25 H25            1.2351    -1.7630    -0.0188 H       
  26 H26            3.3294     1.9531    -0.0181 H       
  27 H27           -0.2964    -2.6838    -0.0098 H       
  28 H28           -2.4345    -3.9391     0.0048 H       
  29 H29           -4.4978    -0.1684     0.0455 H       
  30 H30           -8.5124    -2.3376     0.0734 H       
  31 H31           -9.8779    -7.4818     0.0620 H       
  32 H32           -8.3777    -7.8043    -0.8400 H       
  33 H33           -8.3648    -7.8106     0.9399 H       
@<TRIPOS>BOND
   1    1    2 ar
   2    1    6 ar
   3    1   24 1
   4    2    3 ar
   5    2    7 1
   6    3    4 ar
   7    3   25 1
   8    4    5 ar
   9    4   23 1
  10    5    6 ar
  11    5   26 1
  12    6   16 1
  13    7    8 ar
  14    7   12 ar
  15    8    9 ar
  16    8   27 1
  17    9   10 ar
  18    9   28 1
  19   10   11 ar
  20   10   13 1
  21   11   12 ar
  22   11   29 1
  23   13   14 3
  24   14   15 1
  25   15   21 2
  26   15   20 1
  27   16   17 3
  28   18   19 1
  29   18   21 1
  30   19   20 2
  31   19   22 1
  32   21   30 1
  33   22   31 1
  34   22   32 1
  35   22   33 1

#	End of record

