#	Name: ASD03330515
#	Creating user name:	WinNT
#	Creation time:	15. 06. 2019 20:37

#	Modifying user name:	WinNT
#	Modification time:	15. 06. 2019 20:37

#	Program:	/corina/corina34_cracker 3.40 0067  02.08.2006

@<TRIPOS>MOLECULE
ASD03330515
  60   62    0    0    0
SMALL
NO_CHARGES


@<TRIPOS>ATOM
   1 C1             0.1619    -0.4305     1.0245 C.3     
   2 N2             0.1754    -1.8157     0.5335 N.3     
   3 C3             0.6161    -1.8775    -0.8718 C.3     
   4 C4             1.8911    -1.0842    -0.9955 C.2     
   5 N5             2.3273    -0.2043    -0.0563 N.pl3   
   6 C6             1.6003     0.0778     1.1852 C.3     
   7 C7             2.8032    -1.0837    -1.9973 C.2     
   8 N8             3.7836    -0.2053    -1.6521 N.2     
   9 C9             3.4952     0.3167    -0.4913 C.2     
  10 C10            4.3288     1.3345     0.2437 C.3     
  11 C11            2.7449    -1.8861    -3.2315 C.2     
  12 O12            1.8098    -2.6398    -3.4232 O.2     
  13 C13            3.6697    -2.5827    -5.3755 C.3     
  14 N14            3.7277    -1.7848    -4.1482 N.am    
  15 C15            2.8217    -1.8525    -6.4189 C.3     
  16 C16            5.7269     0.7607     0.5333 C.3     
  17 C17           -1.1408    -2.4463     0.7007 C.3     
  18 C18            3.3726    -0.4403    -6.6263 C.3     
  19 C19            2.8704    -2.6185    -7.7424 C.3     
  20 C20            1.3739    -1.7686    -5.9313 C.3     
  21 C21            5.0640    -2.7819    -5.9115 C.2     
  22 N22            5.3417    -3.8484    -6.6873 N.am    
  23 O23            5.9362    -1.9825    -5.6447 O.2     
  24 C24            6.7194    -4.1044    -7.1146 C.3     
  25 C25            6.7376     1.6798    -0.1833 C.3     
  26 C26            5.9890     3.0281    -0.3275 C.3     
  27 C27            4.5387     2.5823    -0.6388 C.3     
  28 H28           -0.3682     0.2014     0.3118 H       
  29 H29           -0.3457    -0.3926     1.9883 H       
  30 H30            0.7982    -2.9141    -1.1555 H       
  31 H31           -0.1496    -1.4473    -1.5173 H       
  32 H32            1.5922     1.1519     1.3706 H       
  33 H33            2.0810    -0.4360     2.0177 H       
  34 H34            3.8394     1.6142     1.1766 H       
  35 H35            3.2222    -3.5524    -5.1576 H       
  36 H36            4.4734    -1.1836    -3.9953 H       
  37 H37            5.9163     0.7627     1.6067 H       
  38 H38            5.8024    -0.2539     0.1422 H       
  39 H39           -1.8983    -1.8451     0.1978 H       
  40 H40           -1.1227    -3.4457     0.2660 H       
  41 H41           -1.3780    -2.5161     1.7623 H       
  42 H42            4.4041    -0.5001    -6.9737 H       
  43 H43            2.7685     0.0798    -7.3696 H       
  44 H44            3.3379     0.1054    -5.6834 H       
  45 H45            2.4440    -3.6119    -7.6032 H       
  46 H46            2.2965    -2.0790    -8.4958 H       
  47 H47            3.9056    -2.7103    -8.0711 H       
  48 H48            1.3391    -1.2229    -4.9884 H       
  49 H49            0.7697    -1.2484    -6.6746 H       
  50 H50            0.9813    -2.7746    -5.7835 H       
  51 H51            4.6294    -4.4464    -6.9628 H       
  52 H52            7.0840    -3.2557    -7.6933 H       
  53 H53            7.3516    -4.2448    -6.2379 H       
  54 H54            6.7476    -5.0032    -7.7306 H       
  55 H55            7.6354     1.8048     0.4220 H       
  56 H56            6.9906     1.2772    -1.1641 H       
  57 H57            6.0280     3.5931     0.6039 H       
  58 H58            6.3992     3.6115    -1.1518 H       
  59 H59            4.4366     2.3254    -1.6932 H       
  60 H60            3.8319     3.3659    -0.3659 H       
@<TRIPOS>BOND
   1    1    2 1
   2    1    6 1
   3    1   28 1
   4    1   29 1
   5    2    3 1
   6    2   17 1
   7    3    4 1
   8    3   30 1
   9    3   31 1
  10    4    5 1
  11    4    7 2
  12    5    6 1
  13    5    9 1
  14    6   32 1
  15    6   33 1
  16    7    8 1
  17    7   11 1
  18    8    9 2
  19    9   10 1
  20   10   16 1
  21   10   27 1
  22   10   34 1
  23   11   12 2
  24   11   14 am
  25   13   14 1
  26   13   15 1
  27   13   21 1
  28   13   35 1
  29   14   36 1
  30   15   18 1
  31   15   19 1
  32   15   20 1
  33   16   25 1
  34   16   37 1
  35   16   38 1
  36   17   39 1
  37   17   40 1
  38   17   41 1
  39   18   42 1
  40   18   43 1
  41   18   44 1
  42   19   45 1
  43   19   46 1
  44   19   47 1
  45   20   48 1
  46   20   49 1
  47   20   50 1
  48   21   22 am
  49   21   23 2
  50   22   24 1
  51   22   51 1
  52   24   52 1
  53   24   53 1
  54   24   54 1
  55   25   26 1
  56   25   55 1
  57   25   56 1
  58   26   27 1
  59   26   57 1
  60   26   58 1
  61   27   59 1
  62   27   60 1

#	End of record

