#	Name: ASD09740431
#	Creating user name:	WinNT
#	Creation time:	15. 06. 2019 21:23

#	Modifying user name:	WinNT
#	Modification time:	15. 06. 2019 21:23

#	Program:	/corina/corina34_cracker 3.40 0067  02.08.2006

@<TRIPOS>MOLECULE
ASD09740431
  80   84    0    0    0
SMALL
NO_CHARGES


@<TRIPOS>ATOM
   1 N1            -0.0944     1.3695     0.7156 N.2     
   2 C2            -0.1041     0.0822     0.9572 C.2     
   3 C3             1.0399     1.9948     0.8634 C.2     
   4 S4             2.2745     0.8454     1.3709 S.3     
   5 C5             1.0789    -0.4492     1.3355 C.2     
   6 C6             1.2560     3.4392     0.6397 C.ar    
   7 C7             0.1961     4.2477     0.2375 C.ar    
   8 C8             2.5238     3.9955     0.8375 C.ar    
   9 C9             2.7308     5.3419     0.6308 C.ar    
  10 C10            1.6829     6.1562     0.2248 C.ar    
  11 C11            0.4059     5.6101     0.0279 C.ar    
  12 O12            1.8923     7.4813     0.0232 O.3     
  13 C13            3.2384     7.9489     0.1299 C.3     
  14 C14            3.4015     9.2265    -0.6960 C.3     
  15 C15            3.5608     8.2448     1.5960 C.3     
  16 C16           -0.6773     6.4479    -0.3910 C.1     
  17 N17           -1.5366     7.1125    -0.7233 N.1     
  18 C18            1.3271    -1.8687     1.6634 C.ar    
  19 C19            2.3999    -2.5459     1.0753 C.ar    
  20 C20            2.6264    -3.8705     1.3859 C.ar    
  21 C21            1.7907    -4.5246     2.2783 C.ar    
  22 C22            0.7283    -3.8601     2.8616 C.ar    
  23 C23            0.4951    -2.5331     2.5644 C.ar    
  24 C24            3.4401    -2.0651     0.0866 C.3     
  25 C25            4.5785    -3.1047     0.1612 C.3     
  26 C26            3.8357    -4.3748     0.6272 C.3     
  27 N27            4.6933    -5.1707     1.5089 N.am    
  28 S28            4.6111    -6.8243     1.4720 S.o2    
  29 C29            5.1925    -7.2694    -0.1877 C.3     
  30 C30            5.1629    -8.7908    -0.3474 C.3     
  31 O31            5.5457    -7.2436     2.4568 O.2     
  32 O32            3.2257    -7.1094     1.6082 O.2     
  33 N33            5.6336    -9.1513    -1.6915 N.3     
  34 C34            5.8448   -10.6001    -1.8041 C.3     
  35 C35            6.4707   -10.9216    -3.1631 C.3     
  36 C36            5.5391   -10.4347    -4.2765 C.3     
  37 C37            5.2967    -8.9323    -4.1079 C.3     
  38 C38            4.7050    -8.6684    -2.7214 C.3     
  39 N39            6.1612   -10.6880    -5.5829 N.3     
  40 C40            5.2454   -10.3420    -6.6781 C.3     
  41 C41            7.4321    -9.9624    -5.7104 C.3     
  42 H42           -0.9989    -0.5148     0.8606 H       
  43 H43           -0.7848     3.8211     0.0881 H       
  44 H44            3.3435     3.3674     1.1538 H       
  45 H45            3.7122     5.7652     0.7857 H       
  46 H46            3.9193     7.1847    -0.2447 H       
  47 H47            2.7206     9.9908    -0.3214 H       
  48 H48            4.4283     9.5832    -0.6146 H       
  49 H49            3.1719     9.0157    -1.7405 H       
  50 H50            2.8799     9.0091     1.9707 H       
  51 H51            3.4446     7.3347     2.1844 H       
  52 H52            4.5875     8.6015     1.6774 H       
  53 H53            1.9711    -5.5618     2.5194 H       
  54 H54            0.0830    -4.3788     3.5551 H       
  55 H55           -0.3349    -2.0135     3.0199 H       
  56 H56            3.0207    -2.0349    -0.9191 H       
  57 H57            3.8080    -1.0800     0.3736 H       
  58 H58            5.0291    -3.2572    -0.8196 H       
  59 H59            5.3299    -2.8050     0.8918 H       
  60 H60            3.5227    -4.9670    -0.2327 H       
  61 H61            5.3093    -4.7291     2.1142 H       
  62 H62            4.5431    -6.8130    -0.9347 H       
  63 H63            6.2122    -6.9095    -0.3242 H       
  64 H64            5.8123    -9.2472     0.3996 H       
  65 H65            4.1431    -9.1507    -0.2110 H       
  66 H66            6.5123   -10.9327    -1.0091 H       
  67 H67            4.8882   -11.1147    -1.7139 H       
  68 H68            7.4338   -10.4184    -3.2484 H       
  69 H69            6.6129   -11.9986    -3.2526 H       
  70 H70            4.5893   -10.9660    -4.2152 H       
  71 H71            6.2414    -8.3978    -4.2081 H       
  72 H72            4.6003    -8.5879    -4.8724 H       
  73 H73            3.7536    -9.1920    -2.6270 H       
  74 H74            4.5445    -7.5980    -2.5928 H       
  75 H75            4.9850    -9.2855    -6.6140 H       
  76 H76            5.7310   -10.5392    -7.6339 H       
  77 H77            4.3405   -10.9446    -6.5992 H       
  78 H78            8.1171   -10.2890    -4.9279 H       
  79 H79            7.8714   -10.1676    -6.6866 H       
  80 H80            7.2510    -8.8921    -5.6112 H       
@<TRIPOS>BOND
   1    1    2 1
   2    1    3 2
   3    2    5 2
   4    2   42 1
   5    3    4 1
   6    3    6 1
   7    4    5 1
   8    5   18 1
   9    6    7 ar
  10    6    8 ar
  11    7   11 ar
  12    7   43 1
  13    8    9 ar
  14    8   44 1
  15    9   10 ar
  16    9   45 1
  17   10   11 ar
  18   10   12 1
  19   11   16 1
  20   12   13 1
  21   13   14 1
  22   13   15 1
  23   13   46 1
  24   14   47 1
  25   14   48 1
  26   14   49 1
  27   15   50 1
  28   15   51 1
  29   15   52 1
  30   16   17 3
  31   18   19 ar
  32   18   23 ar
  33   19   20 ar
  34   19   24 1
  35   20   21 ar
  36   20   26 1
  37   21   22 ar
  38   21   53 1
  39   22   23 ar
  40   22   54 1
  41   23   55 1
  42   24   25 1
  43   24   56 1
  44   24   57 1
  45   25   26 1
  46   25   58 1
  47   25   59 1
  48   26   27 1
  49   26   60 1
  50   27   28 am
  51   27   61 1
  52   28   29 1
  53   28   31 2
  54   28   32 2
  55   29   30 1
  56   29   62 1
  57   29   63 1
  58   30   33 1
  59   30   64 1
  60   30   65 1
  61   33   34 1
  62   33   38 1
  63   34   35 1
  64   34   66 1
  65   34   67 1
  66   35   36 1
  67   35   68 1
  68   35   69 1
  69   36   37 1
  70   36   39 1
  71   36   70 1
  72   37   38 1
  73   37   71 1
  74   37   72 1
  75   38   73 1
  76   38   74 1
  77   39   40 1
  78   39   41 1
  79   40   75 1
  80   40   76 1
  81   40   77 1
  82   41   78 1
  83   41   79 1
  84   41   80 1

#	End of record

