#	Name: ASD02770019
#	Creating user name:	WinNT
#	Creation time:	15. 06. 2019 20:26

#	Modifying user name:	WinNT
#	Modification time:	15. 06. 2019 20:26

#	Program:	/corina/corina34_cracker 3.40 0067  02.08.2006

@<TRIPOS>MOLECULE
ASD02770019
  41   41    0    0    0
SMALL
NO_CHARGES


@<TRIPOS>ATOM
   1 C1            -0.0184     1.5028     0.0103 C.2     
   2 C2             0.0021    -0.0041     0.0020 C.3     
   3 O3             1.0236     2.1234     0.0037 O.2     
   4 N4            -1.1946     2.1607     0.0195 N.am    
   5 O5             1.3556    -0.4620    -0.0134 O.3     
   6 C6             1.5521    -1.8079    -0.0225 C.ar    
   7 C7             1.6410    -2.4891    -1.2270 C.ar    
   8 C8             1.8408    -3.8579    -1.2339 C.ar    
   9 C9             1.9517    -4.5492    -0.0417 C.ar    
  10 C10            1.8635    -3.8757     1.1622 C.ar    
  11 C11            1.6700    -2.5034     1.1765 C.ar    
  12 O12            1.5895    -1.8389     2.3603 O.3     
  13 C13            1.7194    -2.6175     3.5515 C.3     
  14 C14            1.6032    -1.7039     4.7732 C.3     
  15 C15            2.1688    -6.0404    -0.0547 C.3     
  16 N16            3.6099    -6.3253    -0.0707 N.3     
  17 C17            3.8602    -7.7727    -0.0837 C.3     
  18 C18            5.1870    -8.2549    -0.6736 C.3     
  19 C19            4.9576    -8.3082     0.8381 C.3     
  20 Cl20           1.5011    -1.6245    -2.7258 Cl      
  21 H21           -0.4983    -0.3791     0.8948 H       
  22 H22           -0.5153    -0.3696    -0.8850 H       
  23 H23           -2.0280     1.6644     0.0207 H       
  24 H24           -1.2077     3.1306     0.0248 H       
  25 H25            1.9100    -4.3877    -2.1725 H       
  26 H26            1.9497    -4.4184     2.0920 H       
  27 H27            0.9298    -3.3683     3.5827 H       
  28 H28            2.6910    -3.1117     3.5584 H       
  29 H29            0.6316    -1.2098     4.7663 H       
  30 H30            1.7023    -2.2979     5.6818 H       
  31 H31            2.3928    -0.9532     4.7420 H       
  32 H32            1.7213    -6.4805     0.8364 H       
  33 H33            1.7042    -6.4674    -0.9434 H       
  34 H34            4.0591    -5.8736    -0.8531 H       
  35 H35            2.9826    -8.4002    -0.2393 H       
  36 H36            5.1824    -9.1998    -1.2170 H       
  37 H37            5.8741    -7.4981    -1.0520 H       
  38 H38            5.4939    -7.5865     1.4543 H       
  39 H39            4.8021    -9.2882     1.2894 H       
  40 Cl40          10.8741     8.1306    10.6818 Cl      
  41 H41           10.8741     9.5006    10.6818 H       
@<TRIPOS>BOND
   1    1    2 1
   2    1    3 2
   3    1    4 am
   4    2    5 1
   5    2   21 1
   6    2   22 1
   7    4   23 1
   8    4   24 1
   9    5    6 1
  10    6    7 ar
  11    6   11 ar
  12    7    8 ar
  13    7   20 1
  14    8    9 ar
  15    8   25 1
  16    9   10 ar
  17    9   15 1
  18   10   11 ar
  19   10   26 1
  20   11   12 1
  21   12   13 1
  22   13   14 1
  23   13   27 1
  24   13   28 1
  25   14   29 1
  26   14   30 1
  27   14   31 1
  28   15   16 1
  29   15   32 1
  30   15   33 1
  31   16   17 1
  32   16   34 1
  33   17   18 1
  34   17   19 1
  35   17   35 1
  36   18   19 1
  37   18   36 1
  38   18   37 1
  39   19   38 1
  40   19   39 1
  41   40   41 1

#	End of record

