#	Name: ASD01811388
#	Creating user name:	WinNT
#	Creation time:	15. 06. 2019 19:26

#	Modifying user name:	WinNT
#	Modification time:	15. 06. 2019 19:26

#	Program:	/corina/corina34_cracker 3.40 0067  02.08.2006

@<TRIPOS>MOLECULE
ASD01811388
  57   62    0    0    0
SMALL
NO_CHARGES


@<TRIPOS>ATOM
   1 C1             0.3186     0.8840     0.0750 C.ar    
   2 C2             0.5184    -0.4648     0.3036 C.ar    
   3 C3             1.7921    -0.9564     0.5022 C.ar    
   4 C4             2.8873    -0.0968     0.4731 C.ar    
   5 C5             2.6743     1.2593     0.2411 C.ar    
   6 C6             1.4015     1.7454     0.0443 C.ar    
   7 N7             4.2503    -0.3493     0.6432 N.am    
   8 C8             4.9914     0.7706     0.5389 C.2     
   9 C9             4.0333     1.8992     0.2703 C.3     
  10 C10            4.3541     2.6069    -1.0487 C.3     
  11 N11            4.5805     4.0342    -0.7220 N.3     
  12 C12            5.0091     4.0621     0.7008 C.3     
  13 C13            4.1218     2.9756     1.3636 C.3     
  14 C14            5.6096     4.6169    -1.5934 C.3     
  15 C15            5.1745     4.7530    -3.0647 C.3     
  16 O16            5.7882     6.0564    -3.0077 O.3     
  17 C17            5.6392     6.1569    -1.5771 C.3     
  18 O18            6.1970     0.8533     0.6423 O.2     
  19 C19            4.8092    -1.6779     0.9052 C.3     
  20 C20            5.1351    -2.3526    -0.4023 C.ar    
  21 C21            6.3038    -2.0302    -1.0732 C.ar    
  22 C22            6.6065    -2.6472    -2.2726 C.ar    
  23 C23            5.7342    -3.5935    -2.8052 C.ar    
  24 C24            4.5610    -3.9130    -2.1257 C.ar    
  25 C25            4.2698    -3.2953    -0.9258 C.ar    
  26 F26            7.1481    -1.1118    -0.5548 F       
  27 C27            6.0537    -4.2592    -4.0933 C.2     
  28 C28            7.1973    -4.0358    -4.8845 C.2     
  29 N29            7.1198    -4.8066    -5.9368 N.2     
  30 N30            5.9336    -5.5465    -5.8599 N.pl3   
  31 C31            5.2957    -5.2029    -4.7229 C.2     
  32 C32            5.4686    -6.5286    -6.8425 C.3     
  33 H33           -0.6798     1.2640    -0.0838 H       
  34 H34           -0.3268    -1.1368     0.3273 H       
  35 H35            1.9403    -2.0111     0.6811 H       
  36 H36            1.2480     2.7993    -0.1349 H       
  37 H37            5.2527     2.1787    -1.4928 H       
  38 H38            3.5148     2.5104    -1.7375 H       
  39 H39            6.0642     3.8033     0.7894 H       
  40 H40            4.8137     5.0395     1.1419 H       
  41 H41            3.1337     3.3725     1.5961 H       
  42 H42            4.6006     2.5788     2.2588 H       
  43 H43            6.5882     4.1545    -1.4648 H       
  44 H44            5.6758     4.0586    -3.7389 H       
  45 H45            4.0938     4.7802    -3.2043 H       
  46 H46            4.7004     6.6127    -1.2625 H       
  47 H47            6.5092     6.5759    -1.0715 H       
  48 H48            5.7175    -1.5793     1.4995 H       
  49 H49            4.0808    -2.2772     1.4516 H       
  50 H50            7.5173    -2.3958    -2.7958 H       
  51 H51            3.8816    -4.6458    -2.5353 H       
  52 H52            3.3603    -3.5433    -0.3989 H       
  53 H53            7.9984    -3.3469    -4.6607 H       
  54 H54            4.3522    -5.5983    -4.3764 H       
  55 H55            5.8493    -7.5152    -6.5782 H       
  56 H56            4.3788    -6.5491    -6.8480 H       
  57 H57            5.8318    -6.2522    -7.8323 H       
@<TRIPOS>BOND
   1    1    2 ar
   2    1    6 ar
   3    1   33 1
   4    2    3 ar
   5    2   34 1
   6    3    4 ar
   7    3   35 1
   8    4    5 ar
   9    4    7 1
  10    5    6 ar
  11    5    9 1
  12    6   36 1
  13    7    8 am
  14    7   19 1
  15    8    9 1
  16    8   18 2
  17    9   10 1
  18    9   13 1
  19   10   11 1
  20   10   37 1
  21   10   38 1
  22   11   12 1
  23   11   14 1
  24   12   13 1
  25   12   39 1
  26   12   40 1
  27   13   41 1
  28   13   42 1
  29   14   15 1
  30   14   17 1
  31   14   43 1
  32   15   16 1
  33   15   44 1
  34   15   45 1
  35   16   17 1
  36   17   46 1
  37   17   47 1
  38   19   20 1
  39   19   48 1
  40   19   49 1
  41   20   21 ar
  42   20   25 ar
  43   21   22 ar
  44   21   26 1
  45   22   23 ar
  46   22   50 1
  47   23   24 ar
  48   23   27 1
  49   24   25 ar
  50   24   51 1
  51   25   52 1
  52   27   28 1
  53   27   31 2
  54   28   29 2
  55   28   53 1
  56   29   30 1
  57   30   31 1
  58   30   32 1
  59   31   54 1
  60   32   55 1
  61   32   56 1
  62   32   57 1

#	End of record

