#	Name: ASD01903052
#	Creating user name:	WinNT
#	Creation time:	15. 06. 2019 19:54

#	Modifying user name:	WinNT
#	Modification time:	15. 06. 2019 19:54

#	Program:	/corina/corina34_cracker 3.40 0067  02.08.2006

@<TRIPOS>MOLECULE
ASD01903052
  35   37    0    0    0
SMALL
NO_CHARGES


@<TRIPOS>ATOM
   1 C1            -0.0152     1.3098    -0.0028 C.2     
   2 N2             0.0035    -0.0044    -0.0346 N.2     
   3 C3            -1.1660    -0.6160    -0.0331 C.2     
   4 N4            -2.2397     0.1321    -0.0004 N.2     
   5 S5            -1.6834     1.7372     0.0370 S.3     
   6 C6            -1.2604    -2.0969    -0.0678 C.2     
   7 N7             1.0722     2.1659     0.0035 N.pl3   
   8 C8            -2.4102    -2.8319    -0.0697 C.2     
   9 N9            -2.0620    -4.1337    -0.1070 N.pl3   
  10 N10           -0.6643    -4.2125    -0.1289 N.2     
  11 C11           -0.1796    -2.9992    -0.1110 C.2     
  12 C12            0.8753     3.5464    -0.0928 C.ar    
  13 C13            1.7207     4.4187     0.5811 C.ar    
  14 C14            1.5237     5.7821     0.4835 C.ar    
  15 C15            0.4860     6.2792    -0.2836 C.ar    
  16 C16           -0.3574     5.4136    -0.9558 C.ar    
  17 C17           -0.1625     4.0493    -0.8671 C.ar    
  18 C18           -3.8148    -2.2870    -0.0356 C.3     
  19 C19           -4.2654    -1.9493    -1.4582 C.3     
  20 C20           -5.6915    -1.3960    -1.4236 C.3     
  21 H21            1.9709     1.8079     0.0746 H       
  22 H22           -2.6742    -4.8860    -0.1169 H       
  23 H23            0.8674    -2.7344    -0.1208 H       
  24 H24            2.5308     4.0311     1.1810 H       
  25 H25            2.1805     6.4609     1.0072 H       
  26 H26            0.3337     7.3459    -0.3577 H       
  27 H27           -1.1670     5.8051    -1.5538 H       
  28 H28           -0.8213     3.3738    -1.3926 H       
  29 H29           -4.4843    -3.0346     0.3898 H       
  30 H30           -3.8402    -1.3859     0.5771 H       
  31 H31           -3.5959    -1.2017    -1.8836 H       
  32 H32           -4.2400    -2.8504    -2.0709 H       
  33 H33           -6.3610    -2.1436    -0.9983 H       
  34 H34           -5.7169    -0.4949    -0.8109 H       
  35 H35           -6.0125    -1.1554    -2.4371 H       
@<TRIPOS>BOND
   1    1    2 2
   2    1    7 1
   3    1    5 1
   4    2    3 1
   5    3    4 2
   6    3    6 1
   7    4    5 1
   8    6    8 2
   9    6   11 1
  10    7   12 1
  11    7   21 1
  12    8    9 1
  13    8   18 1
  14    9   10 1
  15    9   22 1
  16   10   11 2
  17   11   23 1
  18   12   13 ar
  19   12   17 ar
  20   13   14 ar
  21   13   24 1
  22   14   15 ar
  23   14   25 1
  24   15   16 ar
  25   15   26 1
  26   16   17 ar
  27   16   27 1
  28   17   28 1
  29   18   19 1
  30   18   29 1
  31   18   30 1
  32   19   20 1
  33   19   31 1
  34   19   32 1
  35   20   33 1
  36   20   34 1
  37   20   35 1

#	End of record

