#	Name: ASD00731033
#	Creating user name:	WinNT
#	Creation time:	15. 06. 2019 18:37

#	Modifying user name:	WinNT
#	Modification time:	15. 06. 2019 18:37

#	Program:	/corina/corina34_cracker 3.40 0067  02.08.2006

@<TRIPOS>MOLECULE
ASD00731033
 275  278    0    0    0
SMALL
NO_CHARGES


@<TRIPOS>ATOM
   1 C1            -2.0428    -1.8360     1.5142 C.2     
   2 O2            -2.3752    -2.9990     1.4255 O.2     
   3 N3             0.1972    -2.7085     1.8461 N.am    
   4 C4            -0.5982    -1.4816     1.7563 C.3     
   5 C5            -0.0829    -0.6232     0.5993 C.3     
   6 C6             1.3217    -0.1668     0.8992 C.ar    
   7 C7             2.3978    -0.9385     0.5018 C.ar    
   8 C8             3.6863    -0.5225     0.7759 C.ar    
   9 C9             3.9000     0.6709     1.4502 C.ar    
  10 O10            5.1666     1.0825     1.7207 O.3     
  11 C11            2.8185     1.4437     1.8475 C.ar    
  12 C12            1.5321     1.0258     1.5664 C.ar    
  13 C13           -5.0561    -0.0544     0.4609 C.2     
  14 O14           -4.4354     0.9537     0.1977 O.2     
  15 N15           -2.9645    -0.8604     1.3909 N.am    
  16 C16           -4.3678    -1.2047     1.1495 C.3     
  17 C17           -5.0602    -1.4882     2.4842 C.3     
  18 O18           -5.0934    -0.2931     3.2668 O.3     
  19 C19           -8.5086     0.9179    -0.2442 C.2     
  20 O20           -8.9843    -0.0529     0.3054 O.2     
  21 N21           -6.3613    -0.1461     0.1376 N.am    
  22 C22           -7.0303     0.9722    -0.5318 C.3     
  23 C23           -6.8005     0.8743    -2.0412 C.3     
  24 C24           -5.3006     0.9470    -2.3345 C.3     
  25 O25           -7.3203    -0.3667    -2.5227 O.3     
  26 C26          -11.4318     2.2440    -1.7233 C.2     
  27 O27          -10.7667     2.5848    -2.6784 O.2     
  28 N28           -9.3022     1.9483    -0.5979 N.am    
  29 C29          -10.7546     1.8426    -0.4382 C.3     
  30 C30          -11.2124     2.7687     0.6904 C.3     
  31 C31          -10.5993     2.3169     1.9908 C.2     
  32 O32           -9.8385     1.3784     2.0061 O.2     
  33 O33          -10.8985     2.9571     3.1320 O.3     
  34 C34          -14.8308     3.0981    -2.7628 C.2     
  35 O35          -15.2359     3.1152    -1.6197 O.2     
  36 N36          -12.7766     2.2243    -1.8111 N.am    
  37 C37          -13.4348     2.6145    -3.0603 C.3     
  38 C38          -13.5023     1.4086    -3.9996 C.3     
  39 C39          -12.0850     0.9950    -4.4010 C.3     
  40 C40          -12.1524    -0.2109    -5.3402 C.3     
  41 N41          -10.7953    -0.6070    -5.7245 N.pl3   
  42 C42          -10.6041    -1.6744    -6.5697 C.2     
  43 N43           -9.3968    -2.0268    -6.9116 N.2     
  44 N44          -11.6865    -2.3701    -7.0542 N.pl3   
  45 C45          -17.8281     3.9720    -4.6841 C.2     
  46 O46          -17.3335     3.8408    -5.7836 O.2     
  47 N47          -15.6290     3.5117    -3.7668 N.am    
  48 C48          -16.9441     4.0843    -3.4687 C.3     
  49 C49          -16.7846     5.5577    -3.0884 C.3     
  50 C50          -18.1387     6.1215    -2.6531 C.3     
  51 C51          -18.5780     5.4462    -1.3524 C.3     
  52 C52          -18.0145     7.6298    -2.4280 C.3     
  53 C53          -21.3585     4.4700    -5.4910 C.2     
  54 O54          -21.5656     5.0776    -4.4621 O.2     
  55 N55          -19.1683     4.0175    -4.5491 N.am    
  56 C56          -20.0297     3.7946    -5.7129 C.3     
  57 C57          -20.2471     2.2926    -5.9064 C.3     
  58 C58          -18.9151     1.6252    -6.2550 C.3     
  59 C59          -19.1325     0.1232    -6.4485 C.3     
  60 N60          -17.8571    -0.5158    -6.7822 N.pl3   
  61 C61          -17.8045    -1.8718    -7.0026 C.2     
  62 N62          -16.6698    -2.4403    -7.2996 N.2     
  63 N63          -18.9488    -2.6282    -6.9098 N.pl3   
  64 C64          -24.6656     4.3673    -7.0453 C.2     
  65 O65          -24.3691     3.4218    -7.7445 O.2     
  66 N66          -22.3168     4.3987    -6.4361 N.am    
  67 C67          -23.6085     5.0553    -6.2204 C.3     
  68 C68          -23.5105     6.5237    -6.6389 C.3     
  69 C69          -22.5280     7.2516    -5.7193 C.3     
  70 C70          -22.4299     8.7199    -6.1378 C.3     
  71 C71          -21.4474     9.4478    -5.2182 C.3     
  72 N72          -21.3533    10.8577    -5.6200 N.3     
  73 C73          -28.0919     5.0979    -8.0891 C.2     
  74 O74          -28.0397     6.2318    -7.6618 O.2     
  75 N75          -25.9404     4.8029    -7.0060 N.am    
  76 C76          -26.9681     4.1342    -7.8079 C.3     
  77 C77          -27.5108     2.9283    -7.0384 C.3     
  78 C78          -26.4148     1.9087    -6.8642 C.2     
  79 C79          -26.1775     0.8489    -7.6531 C.2     
  80 N80          -25.0992     0.1496    -7.1833 N.pl3   
  81 C81          -24.6037     0.7580    -6.0518 C.ar    
  82 C82          -23.5447     0.4722    -5.1967 C.ar    
  83 C83          -23.2941     1.2940    -4.1194 C.ar    
  84 C84          -24.0884     2.4061    -3.8776 C.ar    
  85 C85          -25.1344     2.7052    -4.7047 C.ar    
  86 C86          -25.4024     1.8899    -5.8056 C.ar    
  87 C87          -31.5180     4.8667    -9.3428 C.2     
  88 O88          -31.5114     3.6547    -9.2995 O.2     
  89 N89          -29.1551     4.6998    -8.8155 N.am    
  90 C90          -30.2477     5.6367    -9.0889 C.3     
  91 C91          -29.9043     6.4748   -10.3220 C.3     
  92 C92          -28.6863     7.3503   -10.0205 C.3     
  93 S93          -28.2791     8.3440   -11.4825 S.3     
  94 C94          -26.8353     9.2979   -10.9384 C.3     
  95 C95          -34.8253     5.6057   -10.7134 C.2     
  96 O96          -34.4889     6.7129   -11.0765 O.2     
  97 N97          -32.6615     5.5250    -9.6178 N.am    
  98 C98          -33.8964     4.7765    -9.8646 C.3     
  99 C99          -34.5739     4.4562    -8.5306 C.3     
 100 C100         -33.6968     3.5264    -7.7323 C.ar    
 101 C101         -32.7524     4.0420    -6.8646 C.ar    
 102 C102         -31.9479     3.1891    -6.1323 C.ar    
 103 C103         -32.0881     1.8206    -6.2674 C.ar    
 104 C104         -33.0332     1.3049    -7.1345 C.ar    
 105 C105         -33.8407     2.1578    -7.8635 C.ar    
 106 C106         -37.7301     6.8475   -11.0106 C.2     
 107 O107         -37.5612     6.8344    -9.8143 O.2     
 108 N108         -36.0299     5.1169   -11.0691 N.am    
 109 C109         -36.9330     5.9230   -11.8943 C.3     
 110 C110         -37.8853     5.0009   -12.6583 C.3     
 111 C111         -38.7441     5.8327   -13.6130 C.3     
 112 C112         -39.6075     4.9008   -14.4656 C.3     
 113 C113         -38.7900     4.2672   -11.6664 C.3     
 114 O114         -38.6277     7.6856   -11.5525 O.3     
 115 C115           1.3576    -2.7107     2.5315 C.2     
 116 O116           1.7434    -1.6969     3.0740 O.2     
 117 C117          16.8028   -11.0691     9.0717 C.3     
 118 C118          15.9721    -9.7876     8.9780 C.3     
 119 C119          14.7132   -10.0553     8.1506 C.3     
 120 C120          13.8825    -8.7739     8.0568 C.3     
 121 C121          12.6237    -9.0416     7.2295 C.3     
 122 C122          11.7930    -7.7602     7.1357 C.3     
 123 C123          10.5341    -8.0278     6.3084 C.3     
 124 C124           9.7034    -6.7464     6.2146 C.3     
 125 C125           8.4445    -7.0141     5.3873 C.3     
 126 C126           7.6138    -5.7327     5.2935 C.3     
 127 C127           6.3550    -6.0004     4.4661 C.3     
 128 C128           5.5243    -4.7189     4.3724 C.3     
 129 C129           4.2654    -4.9866     3.5450 C.3     
 130 C130           3.4347    -3.7052     3.4513 C.3     
 131 C131           2.1758    -3.9729     2.6239 C.3     
 132 H132          -0.1113    -3.5194     1.4122 H       
 133 H133          -0.5123    -0.9238     2.6888 H       
 134 H134          -0.0857    -1.2111    -0.3185 H       
 135 H135          -0.7289     0.2460     0.4760 H       
 136 H136           2.2310    -1.8675    -0.0231 H       
 137 H137           4.5266    -1.1261     0.4659 H       
 138 H138           5.5577     1.6327     1.0283 H       
 139 H139           2.9822     2.3730     2.3729 H       
 140 H140           0.6900     1.6292     1.8716 H       
 141 H141          -2.6986     0.0698     1.4619 H       
 142 H142          -4.4209    -2.0910     0.5172 H       
 143 H143          -6.0786    -1.8301     2.2997 H       
 144 H144          -4.5097    -2.2598     3.0224 H       
 145 H145          -5.5193    -0.3989     4.1285 H       
 146 H146          -6.8576    -0.9524     0.3482 H       
 147 H147          -6.6226     1.9132    -0.1625 H       
 148 H148          -7.3087     1.6992    -2.5404 H       
 149 H149          -4.8069     0.0664    -1.9236 H       
 150 H150          -5.1424     0.9825    -3.4124 H       
 151 H151          -4.8839     1.8440    -1.8764 H       
 152 H152          -8.2683    -0.4816    -2.3704 H       
 153 H153          -8.9117     2.7598    -0.9581 H       
 154 H154         -11.0194     0.8138    -0.1940 H       
 155 H155         -10.8953     3.7889     0.4743 H       
 156 H156         -12.2990     2.7350     0.7699 H       
 157 H157         -10.4808     2.6309     3.9409 H       
 158 H158         -13.3085     1.9517    -1.0471 H       
 159 H159         -12.8669     3.4142    -3.5359 H       
 160 H160         -13.9926     0.5787    -3.4907 H       
 161 H161         -14.0696     1.6742    -4.8916 H       
 162 H162         -11.5946     1.8249    -4.9098 H       
 163 H163         -11.5176     0.7294    -3.5089 H       
 164 H164         -12.6428    -1.0408    -4.8314 H       
 165 H165         -12.7198     0.0546    -6.2322 H       
 166 H166         -10.0317    -0.1162    -5.3827 H       
 167 H167          -9.2619    -2.7799    -7.5079 H       
 168 H168         -12.5850    -2.1078    -6.7997 H       
 169 H169         -11.5516    -3.1231    -7.6505 H       
 170 H170         -15.3328     3.4303    -4.6869 H       
 171 H171         -17.3969     3.5418    -2.6388 H       
 172 H172         -16.0733     5.6460    -2.2673 H       
 173 H173         -16.4176     6.1173    -3.9488 H       
 174 H174         -18.8788     5.9298    -3.4300 H       
 175 H175         -19.5753     5.7930    -1.0818 H       
 176 H176         -18.5946     4.3653    -1.4919 H       
 177 H177         -17.8770     5.6992    -0.5569 H       
 178 H178         -17.7015     8.1109    -3.3546 H       
 179 H179         -18.9791     8.0315    -2.1178 H       
 180 H180         -17.2744     7.8214    -1.6511 H       
 181 H181         -19.5625     4.1977    -3.6813 H       
 182 H182         -19.5547     4.2104    -6.6015 H       
 183 H183         -20.6399     1.8607    -4.9859 H       
 184 H184         -20.9580     2.1297    -6.7164 H       
 185 H185         -18.5223     2.0571    -7.1755 H       
 186 H186         -18.2042     1.7881    -5.4449 H       
 187 H187         -19.5253    -0.3087    -5.5280 H       
 188 H188         -19.8434    -0.0397    -7.2585 H       
 189 H189         -17.0497     0.0179    -6.8477 H       
 190 H190         -16.6327    -3.3970    -7.4551 H       
 191 H191         -19.7932    -2.2051    -6.6888 H       
 192 H192         -18.9117    -3.5849    -7.0653 H       
 193 H193         -22.1511     3.9127    -7.2591 H       
 194 H194         -23.8749     4.9952    -5.1652 H       
 195 H195         -23.1582     6.5853    -7.6686 H       
 196 H196         -24.4929     6.9896    -6.5626 H       
 197 H197         -22.8803     7.1900    -4.6897 H       
 198 H198         -21.5455     6.7856    -5.7957 H       
 199 H199         -22.0776     8.7815    -7.1675 H       
 200 H200         -23.4124     9.1859    -6.0615 H       
 201 H201         -21.7997     9.3862    -4.1886 H       
 202 H202         -20.4649     8.9819    -5.2946 H       
 203 H203         -20.7098    11.3604    -5.0273 H       
 204 H204         -21.0906    10.9402    -6.5908 H       
 205 H205         -26.1776     5.5592    -6.4468 H       
 206 H206         -26.5330     3.7986    -8.7493 H       
 207 H207         -27.8653     3.2514    -6.0596 H       
 208 H208         -28.3358     2.4835    -7.5949 H       
 209 H209         -26.7528     0.5866    -8.5287 H       
 210 H210         -24.7378    -0.6548    -7.5872 H       
 211 H211         -22.9211    -0.3911    -5.3763 H       
 212 H212         -22.4715     1.0702    -3.4564 H       
 213 H213         -23.8785     3.0400    -3.0288 H       
 214 H214         -25.7485     3.5721    -4.5100 H       
 215 H215         -29.1969     3.7930    -9.1573 H       
 216 H216         -30.3864     6.2936    -8.2302 H       
 217 H217         -29.6786     5.8141   -11.1590 H       
 218 H218         -30.7530     7.1089   -10.5782 H       
 219 H219         -28.9119     8.0110    -9.1835 H       
 220 H220         -27.8375     6.7162    -9.7643 H       
 221 H221         -26.4982     9.9420   -11.7506 H       
 222 H222         -27.1073     9.9099   -10.0784 H       
 223 H223         -26.0329     8.6151   -10.6592 H       
 224 H224         -32.6668     6.4944    -9.6524 H       
 225 H225         -33.6607     3.8479   -10.3845 H       
 226 H226         -34.7292     5.3788    -7.9713 H       
 227 H227         -35.5355     3.9780    -8.7171 H       
 228 H228         -32.6428     5.1113    -6.7590 H       
 229 H229         -31.2095     3.5920    -5.4549 H       
 230 H230         -31.4591     1.1542    -5.6959 H       
 231 H231         -33.1426     0.2357    -7.2403 H       
 232 H232         -34.5816     1.7549    -8.5382 H       
 233 H233         -36.2990     4.2313   -10.7787 H       
 234 H234         -36.3498     6.5110   -12.6030 H       
 235 H235         -37.3073     4.2742   -13.2292 H       
 236 H236         -39.3872     6.4981   -13.0370 H       
 237 H237         -38.0977     6.4238   -14.2617 H       
 238 H238         -40.2193     5.4934   -15.1457 H       
 239 H239         -38.9644     4.2354   -15.0416 H       
 240 H240         -40.2539     4.3097   -13.8169 H       
 241 H241         -39.3680     4.9939   -11.0955 H       
 242 H242         -39.4685     3.6103   -12.2107 H       
 243 H243         -38.1782     3.6746   -10.9862 H       
 244 H244         -39.1149     8.2595   -10.9455 H       
 245 H245          17.6996   -10.8784     9.6611 H       
 246 H246          16.2126   -11.8504     9.5506 H       
 247 H247          17.0879   -11.3913     8.0703 H       
 248 H248          15.6870    -9.4654     9.9794 H       
 249 H249          16.5623    -9.0063     8.4991 H       
 250 H250          14.9984   -10.3776     7.1491 H       
 251 H251          14.1231   -10.8367     8.6295 H       
 252 H252          13.5974    -8.4516     9.0583 H       
 253 H253          14.4727    -7.9925     7.5780 H       
 254 H254          12.9088    -9.3638     6.2280 H       
 255 H255          12.0335    -9.8229     7.7084 H       
 256 H256          11.5078    -7.4379     8.1372 H       
 257 H257          12.3831    -6.9788     6.6569 H       
 258 H258          10.8192    -8.3501     5.3069 H       
 259 H259           9.9439    -8.8092     6.7872 H       
 260 H260           9.4183    -6.4242     7.2161 H       
 261 H261          10.2936    -5.9651     5.7357 H       
 262 H262           8.7297    -7.3364     4.3858 H       
 263 H263           7.8544    -7.7954     5.8661 H       
 264 H264           7.3287    -5.4104     6.2950 H       
 265 H265           8.2040    -4.9513     4.8146 H       
 266 H266           6.6401    -6.3226     3.4647 H       
 267 H267           5.7648    -6.7817     4.9450 H       
 268 H268           5.2392    -4.3967     5.3738 H       
 269 H269           6.1144    -3.9376     3.8935 H       
 270 H270           4.5505    -5.3089     2.5435 H       
 271 H271           3.6753    -5.7680     4.0239 H       
 272 H272           3.1496    -3.3829     4.4527 H       
 273 H273           4.0249    -2.9238     2.9724 H       
 274 H274           1.5857    -4.7542     3.1028 H       
 275 H275           2.4610    -4.2951     1.6224 H       
@<TRIPOS>BOND
   1    1    2 2
   2    1    4 1
   3    1   15 am
   4    3  115 am
   5    3    4 1
   6    3  132 1
   7    4    5 1
   8    4  133 1
   9    5    6 1
  10    5  134 1
  11    5  135 1
  12    6    7 ar
  13    6   12 ar
  14    7    8 ar
  15    7  136 1
  16    8    9 ar
  17    8  137 1
  18    9   10 1
  19    9   11 ar
  20   10  138 1
  21   11   12 ar
  22   11  139 1
  23   12  140 1
  24   13   14 2
  25   13   16 1
  26   13   21 am
  27   15   16 1
  28   15  141 1
  29   16   17 1
  30   16  142 1
  31   17   18 1
  32   17  143 1
  33   17  144 1
  34   18  145 1
  35   19   20 2
  36   19   22 1
  37   19   28 am
  38   21   22 1
  39   21  146 1
  40   22   23 1
  41   22  147 1
  42   23   24 1
  43   23   25 1
  44   23  148 1
  45   24  149 1
  46   24  150 1
  47   24  151 1
  48   25  152 1
  49   26   27 2
  50   26   29 1
  51   26   36 am
  52   28   29 1
  53   28  153 1
  54   29   30 1
  55   29  154 1
  56   30   31 1
  57   30  155 1
  58   30  156 1
  59   31   32 2
  60   31   33 1
  61   33  157 1
  62   34   35 2
  63   34   37 1
  64   34   47 am
  65   36   37 1
  66   36  158 1
  67   37   38 1
  68   37  159 1
  69   38   39 1
  70   38  160 1
  71   38  161 1
  72   39   40 1
  73   39  162 1
  74   39  163 1
  75   40   41 1
  76   40  164 1
  77   40  165 1
  78   41   42 1
  79   41  166 1
  80   42   43 2
  81   42   44 1
  82   43  167 1
  83   44  168 1
  84   44  169 1
  85   45   46 2
  86   45   48 1
  87   45   55 am
  88   47   48 1
  89   47  170 1
  90   48   49 1
  91   48  171 1
  92   49   50 1
  93   49  172 1
  94   49  173 1
  95   50   51 1
  96   50   52 1
  97   50  174 1
  98   51  175 1
  99   51  176 1
 100   51  177 1
 101   52  178 1
 102   52  179 1
 103   52  180 1
 104   53   54 2
 105   53   56 1
 106   53   66 am
 107   55   56 1
 108   55  181 1
 109   56   57 1
 110   56  182 1
 111   57   58 1
 112   57  183 1
 113   57  184 1
 114   58   59 1
 115   58  185 1
 116   58  186 1
 117   59   60 1
 118   59  187 1
 119   59  188 1
 120   60   61 1
 121   60  189 1
 122   61   62 2
 123   61   63 1
 124   62  190 1
 125   63  191 1
 126   63  192 1
 127   64   65 2
 128   64   67 1
 129   64   75 am
 130   66   67 1
 131   66  193 1
 132   67   68 1
 133   67  194 1
 134   68   69 1
 135   68  195 1
 136   68  196 1
 137   69   70 1
 138   69  197 1
 139   69  198 1
 140   70   71 1
 141   70  199 1
 142   70  200 1
 143   71   72 1
 144   71  201 1
 145   71  202 1
 146   72  203 1
 147   72  204 1
 148   73   74 2
 149   73   76 1
 150   73   89 am
 151   75   76 1
 152   75  205 1
 153   76   77 1
 154   76  206 1
 155   77   78 1
 156   77  207 1
 157   77  208 1
 158   78   79 2
 159   78   86 1
 160   79   80 1
 161   79  209 1
 162   80   81 1
 163   80  210 1
 164   81   82 ar
 165   81   86 ar
 166   82   83 ar
 167   82  211 1
 168   83   84 ar
 169   83  212 1
 170   84   85 ar
 171   84  213 1
 172   85   86 ar
 173   85  214 1
 174   87   88 2
 175   87   90 1
 176   87   97 am
 177   89   90 1
 178   89  215 1
 179   90   91 1
 180   90  216 1
 181   91   92 1
 182   91  217 1
 183   91  218 1
 184   92   93 1
 185   92  219 1
 186   92  220 1
 187   93   94 1
 188   94  221 1
 189   94  222 1
 190   94  223 1
 191   95   96 2
 192   95   98 1
 193   95  108 am
 194   97   98 1
 195   97  224 1
 196   98   99 1
 197   98  225 1
 198   99  100 1
 199   99  226 1
 200   99  227 1
 201  100  101 ar
 202  100  105 ar
 203  101  102 ar
 204  101  228 1
 205  102  103 ar
 206  102  229 1
 207  103  104 ar
 208  103  230 1
 209  104  105 ar
 210  104  231 1
 211  105  232 1
 212  106  107 2
 213  106  109 1
 214  106  114 1
 215  108  109 1
 216  108  233 1
 217  109  110 1
 218  109  234 1
 219  110  111 1
 220  110  113 1
 221  110  235 1
 222  111  112 1
 223  111  236 1
 224  111  237 1
 225  112  238 1
 226  112  239 1
 227  112  240 1
 228  113  241 1
 229  113  242 1
 230  113  243 1
 231  114  244 1
 232  115  116 2
 233  115  131 1
 234  117  118 1
 235  117  245 1
 236  117  246 1
 237  117  247 1
 238  118  119 1
 239  118  248 1
 240  118  249 1
 241  119  120 1
 242  119  250 1
 243  119  251 1
 244  120  121 1
 245  120  252 1
 246  120  253 1
 247  121  122 1
 248  121  254 1
 249  121  255 1
 250  122  123 1
 251  122  256 1
 252  122  257 1
 253  123  124 1
 254  123  258 1
 255  123  259 1
 256  124  125 1
 257  124  260 1
 258  124  261 1
 259  125  126 1
 260  125  262 1
 261  125  263 1
 262  126  127 1
 263  126  264 1
 264  126  265 1
 265  127  128 1
 266  127  266 1
 267  127  267 1
 268  128  129 1
 269  128  268 1
 270  128  269 1
 271  129  130 1
 272  129  270 1
 273  129  271 1
 274  130  131 1
 275  130  272 1
 276  130  273 1
 277  131  274 1
 278  131  275 1

#	End of record

