#	Name: ASD01901237
#	Creating user name:	WinNT
#	Creation time:	15. 06. 2019 19:53

#	Modifying user name:	WinNT
#	Modification time:	15. 06. 2019 19:53

#	Program:	/corina/corina34_cracker 3.40 0067  02.08.2006

@<TRIPOS>MOLECULE
ASD01901237
  38   41    0    0    0
SMALL
NO_CHARGES


@<TRIPOS>ATOM
   1 C1            -0.0166     1.3750     0.0096 C.ar    
   2 C2             0.0021    -0.0041     0.0020 C.ar    
   3 C3             1.2078    -0.6830    -0.0127 C.ar    
   4 C4             2.4027     0.0149    -0.0203 C.ar    
   5 C5             2.3997     1.3941    -0.0134 C.ar    
   6 C6             1.1860     2.0866     0.0019 C.ar    
   7 C7             1.1748     3.5185     0.0093 C.1     
   8 C8             1.1656     4.6925     0.0153 C.1     
   9 C9             1.1543     6.1244     0.0226 C.ar    
  10 C10           -0.0666     8.1943     0.0502 C.ar    
  11 C11           -0.0605     6.8156     0.0432 C.ar    
  12 C12            2.3585     6.8349     0.0149 C.ar    
  13 C13            2.3438     8.2124     0.0219 C.ar    
  14 C14            1.1340     8.8967     0.0371 C.ar    
  15 N15            1.1239    10.2967     0.0442 N.am    
  16 N16            1.1325    12.2909     1.3039 N.am    
  17 C17            1.1407    10.9500     1.2166 C.2     
  18 C18            1.1029    10.9658    -1.1290 C.2     
  19 C19            1.1053    13.0742     0.1649 C.ar    
  20 O20            1.0923    10.3686    -2.1878 O.2     
  21 Cl21          -1.5743     9.0546     0.0758 Cl      
  22 O22            1.1640    10.3005     2.2440 O.2     
  23 C23            1.0927    12.4423    -1.0913 C.ar    
  24 N24            1.0966    14.3974     0.2333 N.ar    
  25 N25            1.0726    13.1672    -2.2011 N.ar    
  26 C26            1.0646    14.4835    -2.1186 C.ar    
  27 C27            1.0770    15.1099    -0.8789 C.ar    
  28 H28           -0.9584     1.9035     0.0169 H       
  29 H29           -0.9266    -0.5554     0.0079 H       
  30 H30            1.2163    -1.7630    -0.0178 H       
  31 H31            3.3399    -0.5217    -0.0315 H       
  32 H32            3.3330     1.9375    -0.0190 H       
  33 H33           -0.9928     6.2705     0.0533 H       
  34 H34            3.2991     6.3044     0.0038 H       
  35 H35            3.2738     8.7615     0.0160 H       
  36 H36            1.1455    12.7143     2.1765 H       
  37 H37            1.0486    15.0778    -3.0203 H       
  38 H38            1.0699    16.1885    -0.8239 H       
@<TRIPOS>BOND
   1    1    2 ar
   2    1    6 ar
   3    1   28 1
   4    2    3 ar
   5    2   29 1
   6    3    4 ar
   7    3   30 1
   8    4    5 ar
   9    4   31 1
  10    5    6 ar
  11    5   32 1
  12    6    7 1
  13    7    8 3
  14    8    9 1
  15    9   12 ar
  16    9   11 ar
  17   10   11 ar
  18   10   14 ar
  19   10   21 1
  20   11   33 1
  21   12   13 ar
  22   12   34 1
  23   13   14 ar
  24   13   35 1
  25   14   15 1
  26   15   18 am
  27   15   17 am
  28   16   17 am
  29   16   19 1
  30   16   36 1
  31   17   22 2
  32   18   23 1
  33   18   20 2
  34   19   23 ar
  35   19   24 ar
  36   23   25 ar
  37   24   27 ar
  38   25   26 ar
  39   26   27 ar
  40   26   37 1
  41   27   38 1

#	End of record

