#	Name: ASD01918156
#	Creating user name:	WinNT
#	Creation time:	15. 06. 2019 20:10

#	Modifying user name:	WinNT
#	Modification time:	15. 06. 2019 20:10

#	Program:	/corina/corina34_cracker 3.40 0067  02.08.2006

@<TRIPOS>MOLECULE
ASD01918156
  36   39    0    0    0
SMALL
NO_CHARGES


@<TRIPOS>ATOM
   1 N1             4.7306    -0.5699    -2.1933 N.ar    
   2 C2             5.2141     0.1627    -3.1763 C.ar    
   3 N3             5.1547     1.4791    -3.1580 N.ar    
   4 C4             4.6013     2.1197    -2.1415 C.ar    
   5 C5             4.0785     1.3831    -1.0834 C.ar    
   6 C6             4.1617    -0.0044    -1.1414 C.ar    
   7 O7             3.5021     2.0030    -0.0202 O.3     
   8 C8             3.5533     3.3612     0.0319 C.2     
   9 N9             2.4086     5.4362    -0.0292 N.pl3   
  10 C10            2.4061     4.0787    -0.0757 C.2     
  11 C11            4.7879     3.9993     0.2016 C.2     
  12 C12            4.8321     5.3881     0.2543 C.2     
  13 C13            3.5761     6.1274     0.1292 C.2     
  14 C14            6.1107     6.0965     0.4322 C.2     
  15 N15            6.1338     7.4432     0.4810 N.am    
  16 O16            7.1459     5.4663     0.5350 O.2     
  17 N17            1.3944     6.4013    -0.1131 N.2     
  18 C18            1.9708     7.5756    -0.0135 C.2     
  19 N19            3.2796     7.4174     0.1378 N.2     
  20 C20            7.3397     8.1113     0.6487 C.2     
  21 S21            8.8649     7.3549     0.8054 S.3     
  22 C22            9.6423     8.9289     0.9523 C.2     
  23 C23            8.6966     9.8668     0.8712 C.2     
  24 N24            7.4735     9.3998     0.7035 N.2     
  25 C25            9.0010    11.3401     0.9589 C.3     
  26 F26            9.2525    11.8414    -0.3228 F       
  27 H27            5.6724    -0.3299    -4.0211 H       
  28 H28            4.5564     3.1987    -2.1329 H       
  29 H29            3.7673    -0.6109    -0.3396 H       
  30 H30            1.4686     3.5576    -0.2016 H       
  31 H31            5.6949     3.4198     0.2907 H       
  32 H32            5.3082     7.9457     0.3990 H       
  33 H33            1.4577     8.5255    -0.0424 H       
  34 H34           10.6997     9.1042     1.0855 H       
  35 H35            8.1479    11.8622     1.3923 H       
  36 H36            9.8782    11.4931     1.5875 H       
@<TRIPOS>BOND
   1    1    2 ar
   2    1    6 ar
   3    2    3 ar
   4    2   27 1
   5    3    4 ar
   6    4    5 ar
   7    4   28 1
   8    5    6 ar
   9    5    7 1
  10    6   29 1
  11    7    8 1
  12    8   11 1
  13    8   10 2
  14    9   10 1
  15    9   17 1
  16    9   13 1
  17   10   30 1
  18   11   12 2
  19   11   31 1
  20   12   13 1
  21   12   14 1
  22   13   19 2
  23   14   15 am
  24   14   16 2
  25   15   20 1
  26   15   32 1
  27   17   18 2
  28   18   19 1
  29   18   33 1
  30   20   21 1
  31   20   24 2
  32   21   22 1
  33   22   23 2
  34   22   34 1
  35   23   24 1
  36   23   25 1
  37   25   26 1
  38   25   35 1
  39   25   36 1

#	End of record

