#	Name: ASD01900495
#	Creating user name:	WinNT
#	Creation time:	15. 06. 2019 19:52

#	Modifying user name:	WinNT
#	Modification time:	15. 06. 2019 19:52

#	Program:	/corina/corina34_cracker 3.40 0067  02.08.2006

@<TRIPOS>MOLECULE
ASD01900495
  42   46    0    0    0
SMALL
NO_CHARGES


@<TRIPOS>ATOM
   1 C1             0.2233     1.5944     0.1895 C.ar    
   2 C2             0.4054     0.2209     0.0746 C.ar    
   3 C3             1.6664    -0.3228     0.2221 C.ar    
   4 C4             2.7523     0.5030     0.4852 C.ar    
   5 C5             2.5697     1.8750     0.5998 C.ar    
   6 C6             1.3089     2.4189     0.4524 C.ar    
   7 N7            -1.0543     2.1468     0.0343 N.pl3   
   8 N8             4.0298    -0.0477     0.6351 N.pl3   
   9 C9             6.3861     0.2100     1.5823 C.ar    
  10 C10            6.9599     1.1554     2.4537 C.ar    
  11 C11            8.3068     1.0333     2.7931 C.ar    
  12 C12            9.0235    -0.0176     2.2552 C.ar    
  13 C13            8.3927    -0.9134     1.4018 C.ar    
  14 N14            7.1227    -0.7842     1.0921 N.ar    
  15 N15            4.7875     1.6766     2.1416 N.2     
  16 N16            5.9725     2.0446     2.7870 N.pl3   
  17 C17            4.9855     0.6066     1.4183 C.2     
  18 N18           -3.5657     3.4106    -0.0753 N.ar    
  19 C19           -4.7434     3.9867    -0.1196 C.ar    
  20 C20           -4.9138     5.2713    -0.6319 C.ar    
  21 C21           -3.8353     5.9651    -1.1052 C.ar    
  22 C22           -2.5770     5.3419    -1.0542 C.ar    
  23 C23           -1.4071     5.9722    -1.5167 C.ar    
  24 C24           -0.2242     5.3033    -1.4341 C.ar    
  25 N25           -0.1458     4.0791    -0.9307 N.ar    
  26 C26           -1.1983     3.4253    -0.4790 C.ar    
  27 C27           -2.4752     4.0335    -0.5207 C.ar    
  28 Cl28          -0.9519    -0.8104    -0.2535 Cl      
  29 H29            1.8083    -1.3898     0.1333 H       
  30 H30            3.4139     2.5167     0.8043 H       
  31 H31            1.1673     3.4859     0.5417 H       
  32 H32           -1.8383     1.6342     0.2863 H       
  33 H33            4.2523    -0.8833     0.1956 H       
  34 H34            8.7773     1.7419     3.4586 H       
  35 H35           10.0688    -0.1418     2.4967 H       
  36 H36            8.9582    -1.7332     0.9839 H       
  37 H37            6.0782     2.8073     3.3769 H       
  38 H38           -5.6046     3.4505     0.2508 H       
  39 H39           -5.8968     5.7181    -0.6553 H       
  40 H40           -3.9469     6.9615    -1.5064 H       
  41 H41           -1.4469     6.9691    -1.9303 H       
  42 H42            0.6760     5.7835    -1.7884 H       
@<TRIPOS>BOND
   1    1    2 ar
   2    1    6 ar
   3    1    7 1
   4    2    3 ar
   5    2   28 1
   6    3    4 ar
   7    3   29 1
   8    4    5 ar
   9    4    8 1
  10    5    6 ar
  11    5   30 1
  12    6   31 1
  13    7   26 1
  14    7   32 1
  15    8   17 1
  16    8   33 1
  17    9   10 ar
  18    9   14 ar
  19    9   17 1
  20   10   11 ar
  21   10   16 1
  22   11   12 ar
  23   11   34 1
  24   12   13 ar
  25   12   35 1
  26   13   14 ar
  27   13   36 1
  28   15   16 1
  29   15   17 2
  30   16   37 1
  31   18   19 ar
  32   18   27 ar
  33   19   20 ar
  34   19   38 1
  35   20   21 ar
  36   20   39 1
  37   21   22 ar
  38   21   40 1
  39   22   23 ar
  40   22   27 ar
  41   23   24 ar
  42   23   41 1
  43   24   25 ar
  44   24   42 1
  45   25   26 ar
  46   26   27 ar

#	End of record

