#	Name: ASD03331702
#	Creating user name:	WinNT
#	Creation time:	15. 06. 2019 20:39

#	Modifying user name:	WinNT
#	Modification time:	15. 06. 2019 20:39

#	Program:	/corina/corina34_cracker 3.40 0067  02.08.2006

@<TRIPOS>MOLECULE
ASD03331702
  44   47    0    0    0
SMALL
NO_CHARGES


@<TRIPOS>ATOM
   1 C1            -0.0165     1.3626     0.0095 C.ar    
   2 C2             0.0021    -0.0041     0.0020 C.ar    
   3 C3             1.2069    -0.6926    -0.0127 C.ar    
   4 C4             2.4052    -0.0120    -0.0200 C.ar    
   5 C5             2.4098     1.3784    -0.0131 C.ar    
   6 C6             1.1855     2.0720     0.0019 C.ar    
   7 N7             3.4129     2.3244    -0.0177 N.pl3   
   8 C8             2.8664     3.5809    -0.0068 C.2     
   9 C9             1.5268     3.4970     0.0071 C.2     
  10 C10            0.5570     4.6503     0.0225 C.3     
  11 C11            0.7886     5.4849     1.2558 C.ar    
  12 C12            0.7695     5.5121    -1.2237 C.3     
  13 N13            0.4291     4.7355    -2.4184 N.pl3   
  14 C14            4.7850     2.0432    -0.0309 C.ar    
  15 C15            5.3185     1.1385     0.8775 C.ar    
  16 C16            5.6136     2.6642    -0.9561 C.ar    
  17 C17            6.9662     2.3848    -0.9665 C.ar    
  18 C18            7.4953     1.4874    -0.0572 C.ar    
  19 C19            6.6718     0.8634     0.8620 C.ar    
  20 O20           -0.5886     4.0666    -2.4403 O.2     
  21 O21            1.1637     4.7586    -3.3896 O.2     
  22 C22           -0.2288     5.6555     2.1760 C.ar    
  23 C23           -0.0164     6.4210     3.3072 C.ar    
  24 C24            1.2136     7.0156     3.5185 C.ar    
  25 C25            2.2312     6.8442     2.5988 C.ar    
  26 C26            2.0202     6.0751     1.4697 C.ar    
  27 H27           -0.9579     1.8917     0.0169 H       
  28 H28           -0.9283    -0.5525     0.0080 H       
  29 H29            1.2054    -1.7726    -0.0182 H       
  30 H30            3.3377    -0.5568    -0.0308 H       
  31 H31            3.4300     4.5022    -0.0071 H       
  32 H32           -0.4633     4.2670     0.0295 H       
  33 H33            0.1307     6.3936    -1.1692 H       
  34 H34            1.8131     5.8224    -1.2773 H       
  35 H35            4.6759     0.6509     1.5956 H       
  36 H36            5.2009     3.3646    -1.6670 H       
  37 H37            7.6112     2.8674    -1.6858 H       
  38 H38            8.5531     1.2700    -0.0678 H       
  39 H39            7.0874     0.1598     1.5682 H       
  40 H40           -1.1897     5.1910     2.0109 H       
  41 H41           -0.8115     6.5549     4.0258 H       
  42 H42            1.3793     7.6143     4.4020 H       
  43 H43            3.1920     7.3090     2.7637 H       
  44 H44            2.8152     5.9412     0.7512 H       
@<TRIPOS>BOND
   1    1    2 ar
   2    1    6 ar
   3    1   27 1
   4    2    3 ar
   5    2   28 1
   6    3    4 ar
   7    3   29 1
   8    4    5 ar
   9    4   30 1
  10    5    7 1
  11    5    6 ar
  12    6    9 1
  13    7    8 1
  14    7   14 1
  15    8    9 2
  16    8   31 1
  17    9   10 1
  18   10   11 1
  19   10   12 1
  20   10   32 1
  21   11   22 ar
  22   11   26 ar
  23   12   13 1
  24   12   33 1
  25   12   34 1
  26   13   20 2
  27   13   21 2
  28   14   16 ar
  29   14   15 ar
  30   15   19 ar
  31   15   35 1
  32   16   17 ar
  33   16   36 1
  34   17   18 ar
  35   17   37 1
  36   18   19 ar
  37   18   38 1
  38   19   39 1
  39   22   23 ar
  40   22   40 1
  41   23   24 ar
  42   23   41 1
  43   24   25 ar
  44   24   42 1
  45   25   26 ar
  46   25   43 1
  47   26   44 1

#	End of record

