#	Name: ASD01180010
#	Creating user name:	WinNT
#	Creation time:	15. 06. 2019 19:06

#	Modifying user name:	WinNT
#	Modification time:	15. 06. 2019 19:06

#	Program:	/corina/corina34_cracker 3.40 0067  02.08.2006

@<TRIPOS>MOLECULE
ASD01180010
  41   42    0    0    0
SMALL
NO_CHARGES


@<TRIPOS>ATOM
   1 N1            -0.0204     1.3044     0.1296 N.ar    
   2 C2            -0.0042    -0.0129     0.0184 C.ar    
   3 C3             1.2043    -0.7183    -0.0927 C.ar    
   4 N4             2.3598    -0.0951    -0.0905 N.ar    
   5 C5             2.3905     1.2368     0.0194 C.ar    
   6 C6             3.5986     1.9518     0.0275 C.ar    
   7 C7             3.5749     3.3090     0.1422 C.ar    
   8 C8             2.3755     4.0132     0.2527 C.ar    
   9 C9             1.1723     3.3769     0.2511 C.ar    
  10 C10            1.1304     1.9754     0.1359 C.ar    
  11 C11            1.1748    -2.2200    -0.2163 C.3     
  12 C12            1.7164    -2.6295    -1.5874 C.3     
  13 C13            2.0430    -2.8392     0.8808 C.3     
  14 Cl14           2.4189     5.7427     0.3963 Cl      
  15 Cl15           5.0743     4.1840     0.1518 Cl      
  16 C16           -1.2851    -0.7583     0.0115 C.2     
  17 O17           -1.7267    -1.1979    -1.0317 O.2     
  18 N18           -1.9603    -0.9487     1.1624 N.am    
  19 C19           -3.2782    -1.5881     1.1413 C.3     
  20 C20           -1.3762    -0.5162     2.4344 C.3     
  21 C21           -3.1129    -3.1022     1.2865 C.3     
  22 C22           -1.8990     0.8775     2.7880 C.3     
  23 H23            4.5401     1.4295    -0.0564 H       
  24 H24            0.2569     3.9435     0.3375 H       
  25 H25            0.1490    -2.5731    -0.1106 H       
  26 H26            2.7422    -2.2764    -1.6931 H       
  27 H27            1.6951    -3.7157    -1.6768 H       
  28 H28            1.0979    -2.1884    -2.3690 H       
  29 H29            1.6572    -2.5474     1.8575 H       
  30 H30            2.0217    -3.9253     0.7914 H       
  31 H31            3.0688    -2.4860     0.7750 H       
  32 H32           -3.8799    -1.2075     1.9667 H       
  33 H33           -3.7749    -1.3657     0.1969 H       
  34 H34           -1.6548    -1.2188     3.2197 H       
  35 H35           -0.2904    -0.4847     2.3436 H       
  36 H36           -4.0934    -3.5779     1.2709 H       
  37 H37           -2.5112    -3.4828     0.4612 H       
  38 H38           -2.6162    -3.3245     2.2310 H       
  39 H39           -1.6204     1.5802     2.0027 H       
  40 H40           -2.9848     0.8460     2.8788 H       
  41 H41           -1.4645     1.1993     3.7344 H       
@<TRIPOS>BOND
   1    1    2 ar
   2    1   10 ar
   3    2    3 ar
   4    2   16 1
   5    3    4 ar
   6    3   11 1
   7    4    5 ar
   8    5    6 ar
   9    5   10 ar
  10    6    7 ar
  11    6   23 1
  12    7    8 ar
  13    7   15 1
  14    8    9 ar
  15    8   14 1
  16    9   10 ar
  17    9   24 1
  18   11   12 1
  19   11   13 1
  20   11   25 1
  21   12   26 1
  22   12   27 1
  23   12   28 1
  24   13   29 1
  25   13   30 1
  26   13   31 1
  27   16   17 2
  28   16   18 am
  29   18   19 1
  30   18   20 1
  31   19   21 1
  32   19   32 1
  33   19   33 1
  34   20   22 1
  35   20   34 1
  36   20   35 1
  37   21   36 1
  38   21   37 1
  39   21   38 1
  40   22   39 1
  41   22   40 1
  42   22   41 1

#	End of record

