#	Name: ASD01148092
#	Creating user name:	WinNT
#	Creation time:	15. 06. 2019 19:02

#	Modifying user name:	WinNT
#	Modification time:	15. 06. 2019 19:02

#	Program:	/corina/corina34_cracker 3.40 0067  02.08.2006

@<TRIPOS>MOLECULE
ASD01148092
  31   32    0    0    0
SMALL
NO_CHARGES


@<TRIPOS>ATOM
   1 C1            -0.0605     1.3673    -1.0870 C.2     
   2 C2            -0.0295    -0.0799    -0.8089 C.ar    
   3 C3             1.1882    -0.7686    -0.8155 C.ar    
   4 C4             1.2124    -2.1249    -0.5538 C.ar    
   5 C5             0.0210    -2.8049    -0.2833 C.ar    
   6 C6            -1.1874    -2.1188    -0.2778 C.ar    
   7 C7            -1.2159    -0.7652    -0.5326 C.ar    
   8 O8             0.9721     1.9631    -1.3223 O.2     
   9 O9            -1.2347     2.0286    -1.0859 O.3     
  10 N10            0.0454    -4.1732    -0.0193 N.pl3   
  11 C11           -3.3691    -5.3747    -0.6426 C.ar    
  12 C12           -2.2027    -4.6509    -0.7884 C.ar    
  13 C13           -1.1477    -4.8818     0.0934 C.ar    
  14 C14           -1.3185    -5.8419     1.0915 C.ar    
  15 C15           -2.5149    -6.5223     1.1693 C.ar    
  16 N16           -3.4912    -6.2751     0.3157 N.ar    
  17 Br17          -4.8124    -5.0681    -1.8252 Br      
  18 N18            2.4287    -2.8179    -0.5598 N.pl3   
  19 C19           -1.1898     3.4523    -1.3679 C.3     
  20 H20            2.1071    -0.2413    -1.0250 H       
  21 H21           -2.1060    -2.6470    -0.0689 H       
  22 H22           -2.1562    -0.2340    -0.5231 H       
  23 H23            0.8937    -4.6318     0.0859 H       
  24 H24           -2.1087    -3.9161    -1.5743 H       
  25 H25           -0.5241    -6.0493     1.7931 H       
  26 H26           -2.6554    -7.2670     1.9387 H       
  27 H27            3.2550    -2.3458    -0.7478 H       
  28 H28            2.4453    -3.7702    -0.3760 H       
  29 H29           -0.5719     3.9512    -0.6212 H       
  30 H30           -0.7639     3.6132    -2.3582 H       
  31 H31           -2.1997     3.8611    -1.3358 H       
@<TRIPOS>BOND
   1    1    2 1
   2    1    8 2
   3    1    9 1
   4    2    3 ar
   5    2    7 ar
   6    3    4 ar
   7    3   20 1
   8    4    5 ar
   9    4   18 1
  10    5    6 ar
  11    5   10 1
  12    6    7 ar
  13    6   21 1
  14    7   22 1
  15    9   19 1
  16   10   13 1
  17   10   23 1
  18   11   12 ar
  19   11   16 ar
  20   11   17 1
  21   12   13 ar
  22   12   24 1
  23   13   14 ar
  24   14   15 ar
  25   14   25 1
  26   15   16 ar
  27   15   26 1
  28   18   27 1
  29   18   28 1
  30   19   29 1
  31   19   30 1
  32   19   31 1

#	End of record

