#	Name: ASD05720117
#	Creating user name:	WinNT
#	Creation time:	15. 06. 2019 21:01

#	Modifying user name:	WinNT
#	Modification time:	15. 06. 2019 21:01

#	Program:	/corina/corina34_cracker 3.40 0067  02.08.2006

@<TRIPOS>MOLECULE
ASD05720117
  48   52    0    0    0
SMALL
NO_CHARGES


@<TRIPOS>ATOM
   1 O1            -0.1051     1.1933     0.1308 O.3     
   2 C2             0.0755    -0.1221    -0.0315 C.2     
   3 N3             1.3621    -0.4855    -0.1222 N.am    
   4 C4             2.2047     0.7151    -0.0117 C.3     
   5 C5             1.1894     1.8612     0.1616 C.3     
   6 O6            -0.8431    -0.9151    -0.0906 O.2     
   7 C7             3.0272     0.9138    -1.2864 C.3     
   8 C8             2.0855     1.0579    -2.4836 C.3     
   9 C9             3.8786     2.1779    -1.1522 C.3     
  10 C10            3.5735    -3.2494    -0.6455 C.2     
  11 N11            3.1117    -2.0061    -0.4806 N.2     
  12 C12            1.8245    -1.7838    -0.2922 C.2     
  13 C13            0.9188    -2.8638    -0.2629 C.2     
  14 C14            1.3828    -4.1231    -0.4293 C.2     
  15 N15            2.7216    -4.3218    -0.6226 N.pl3   
  16 N16            3.4818    -5.4800    -0.8197 N.2     
  17 C17            4.7428    -5.1516    -0.9587 C.2     
  18 C18            4.8603    -3.7595    -0.8637 C.2     
  19 C19            6.1102    -2.9740    -0.9711 C.ar    
  20 C20            7.2276    -3.3340    -0.2160 C.ar    
  21 C21            8.3926    -2.6023    -0.3158 C.ar    
  22 C22            8.4541    -1.5010    -1.1726 C.ar    
  23 C23            7.3358    -1.1412    -1.9280 C.ar    
  24 C24            6.1730    -1.8770    -1.8318 C.ar    
  25 N25           11.2073     0.7684    -1.8400 N.pl3   
  26 N26            9.8866     0.3388    -2.0480 N.2     
  27 C27            9.7059    -0.7140    -1.2799 C.2     
  28 N28           10.8413    -0.9567    -0.6105 N.2     
  29 C29           11.7463    -0.0733    -0.9401 C.2     
  30 F30            7.3947    -0.0760    -2.7570 F       
  31 F31            9.4739    -2.9506     0.4155 F       
  32 H32            2.8568     0.6464     0.8591 H       
  33 H33            1.2721     2.5724    -0.6603 H       
  34 H34            1.3383     2.3622     1.1181 H       
  35 H35            3.6774     0.0521    -1.4373 H       
  36 H36            1.3796     1.8669    -2.2955 H       
  37 H37            2.6665     1.2833    -3.3779 H       
  38 H38            1.5393     0.1260    -2.6305 H       
  39 H39            4.6089     2.0411    -0.3547 H       
  40 H40            4.3977     2.3677    -2.0917 H       
  41 H41            3.2356     3.0255    -0.9147 H       
  42 H42           -0.1354    -2.6871    -0.1087 H       
  43 H43            0.7034    -4.9625    -0.4094 H       
  44 H44            5.5574    -5.8413    -1.1232 H       
  45 H45            7.1798    -4.1854     0.4468 H       
  46 H46            5.3097    -1.6017    -2.4194 H       
  47 H47           11.6460     1.5218    -2.2651 H       
  48 H48           12.7545    -0.0270    -0.5555 H       
@<TRIPOS>BOND
   1    1    2 1
   2    1    5 1
   3    2    3 am
   4    2    6 2
   5    3    4 1
   6    3   12 1
   7    4    5 1
   8    4    7 1
   9    4   32 1
  10    5   33 1
  11    5   34 1
  12    7    8 1
  13    7    9 1
  14    7   35 1
  15    8   36 1
  16    8   37 1
  17    8   38 1
  18    9   39 1
  19    9   40 1
  20    9   41 1
  21   10   11 1
  22   10   15 1
  23   10   18 2
  24   11   12 2
  25   12   13 1
  26   13   14 2
  27   13   42 1
  28   14   15 1
  29   14   43 1
  30   15   16 1
  31   16   17 2
  32   17   18 1
  33   17   44 1
  34   18   19 1
  35   19   20 ar
  36   19   24 ar
  37   20   21 ar
  38   20   45 1
  39   21   22 ar
  40   21   31 1
  41   22   23 ar
  42   22   27 1
  43   23   24 ar
  44   23   30 1
  45   24   46 1
  46   25   26 1
  47   25   29 1
  48   25   47 1
  49   26   27 2
  50   27   28 1
  51   28   29 2
  52   29   48 1

#	End of record

