#	Name: ASD01883024
#	Creating user name:	WinNT
#	Creation time:	15. 06. 2019 19:45

#	Modifying user name:	WinNT
#	Modification time:	15. 06. 2019 19:45

#	Program:	/corina/corina34_cracker 3.40 0067  02.08.2006

@<TRIPOS>MOLECULE
ASD01883024
  54   56    0    0    0
SMALL
NO_CHARGES


@<TRIPOS>ATOM
   1 N1            -0.0162     1.3416     0.0094 N.am    
   2 C2             0.0021    -0.0041     0.0020 C.2     
   3 C3            -1.2156    -0.7273     0.0102 C.2     
   4 C4            -2.4264    -0.0106     0.0261 C.2     
   5 C5            -2.3785     1.3982     0.0332 C.2     
   6 C6            -1.1852     2.0330     0.0299 C.2     
   7 O7             1.0658    -0.5999    -0.0122 O.2     
   8 C8            -1.2145    -2.1593     0.0021 C.1     
   9 N9            -1.2137    -3.2953    -0.0044 N.1     
  10 C10            1.2514     2.0761     0.0013 C.3     
  11 C11            1.6789     2.3396    -1.4440 C.3     
  12 C12           -5.7073    -1.4398    -1.1155 C.ar    
  13 C13           -4.4985    -0.7754    -1.1285 C.ar    
  14 C14           -3.7208    -0.7198     0.0347 C.ar    
  15 C15           -4.1733    -1.3380     1.2036 C.ar    
  16 C16           -5.3806    -1.9989     1.2084 C.ar    
  17 C17           -6.1523    -2.0531     0.0509 C.ar    
  18 N18           -7.3726    -2.7228     0.0609 N.pl3   
  19 C19           -9.9590    -1.6297    -2.4831 C.3     
  20 O20          -10.7540    -2.8135    -2.3888 O.3     
  21 C21           -9.9954    -4.0237    -2.3442 C.3     
  22 C22           -9.0939    -4.0139    -1.1070 C.3     
  23 C23           -8.1862    -2.7810    -1.1560 C.3     
  24 C24           -9.0560    -1.5238    -1.2514 C.3     
  25 C25            3.0026     3.1067    -1.4525 C.3     
  26 C26            3.4932     3.2613    -2.8935 C.3     
  27 F27           -4.0657    -0.1799    -2.2613 F       
  28 C28            2.7943     4.4902    -0.8334 C.3     
  29 H29           -3.2947     1.9699     0.0454 H       
  30 H30           -1.1608     3.1127     0.0354 H       
  31 H31            1.1245     3.0256     0.5214 H       
  32 H32            2.0168     1.4855     0.5046 H       
  33 H33            1.8057     1.3902    -1.9642 H       
  34 H34            0.9134     2.9302    -1.9474 H       
  35 H35           -6.3106    -1.4800    -2.0104 H       
  36 H36           -3.5759    -1.2974     2.1025 H       
  37 H37           -5.7297    -2.4768     2.1118 H       
  38 H38           -7.6841    -3.1510     0.8736 H       
  39 H39           -9.3440    -1.6755    -3.3819 H       
  40 H40          -10.6106    -0.7573    -2.5323 H       
  41 H41          -10.6732    -4.8759    -2.2934 H       
  42 H42           -9.3809    -4.1008    -3.2412 H       
  43 H43           -9.7093    -3.9777    -0.2081 H       
  44 H44           -8.4823    -4.9162    -1.0947 H       
  45 H45           -7.5358    -2.8415    -2.0285 H       
  46 H46           -8.4174    -0.6451    -1.3424 H       
  47 H47           -9.6707    -1.4372    -0.3554 H       
  48 H48            3.7446     2.5573    -0.8731 H       
  49 H49            2.7512     3.8107    -3.4729 H       
  50 H50            4.4363     3.8078    -2.8995 H       
  51 H51            3.6416     2.2756    -3.3345 H       
  52 H52            2.4448     4.3801     0.1931 H       
  53 H53            3.7374     5.0367    -0.8395 H       
  54 H54            2.0523     5.0396    -1.4129 H       
@<TRIPOS>BOND
   1    1    2 am
   2    1   10 1
   3    1    6 1
   4    2    3 1
   5    2    7 2
   6    3    4 2
   7    3    8 1
   8    4    5 1
   9    4   14 1
  10    5    6 2
  11    5   29 1
  12    6   30 1
  13    8    9 3
  14   10   11 1
  15   10   31 1
  16   10   32 1
  17   11   25 1
  18   11   33 1
  19   11   34 1
  20   12   13 ar
  21   12   17 ar
  22   12   35 1
  23   13   14 ar
  24   13   27 1
  25   14   15 ar
  26   15   16 ar
  27   15   36 1
  28   16   17 ar
  29   16   37 1
  30   17   18 1
  31   18   23 1
  32   18   38 1
  33   19   20 1
  34   19   24 1
  35   19   39 1
  36   19   40 1
  37   20   21 1
  38   21   22 1
  39   21   41 1
  40   21   42 1
  41   22   23 1
  42   22   43 1
  43   22   44 1
  44   23   24 1
  45   23   45 1
  46   24   46 1
  47   24   47 1
  48   25   26 1
  49   25   28 1
  50   25   48 1
  51   26   49 1
  52   26   50 1
  53   26   51 1
  54   28   52 1
  55   28   53 1
  56   28   54 1

#	End of record

