#	Name: ASD01813988
#	Creating user name:	WinNT
#	Creation time:	15. 06. 2019 19:31

#	Modifying user name:	WinNT
#	Modification time:	15. 06. 2019 19:31

#	Program:	/corina/corina34_cracker 3.40 0067  02.08.2006

@<TRIPOS>MOLECULE
ASD01813988
  39   42    0    0    0
SMALL
NO_CHARGES


@<TRIPOS>ATOM
   1 C1            -0.0169     1.3935     0.0097 C.ar    
   2 C2             0.0021    -0.0041     0.0020 C.ar    
   3 C3             1.2525    -0.6619    -0.0135 C.ar    
   4 C4             2.4160     0.1050    -0.0210 C.ar    
   5 C5             2.2961     1.4801    -0.0129 C.ar    
   6 N6             1.1125     2.0677     0.0025 N.ar    
   7 C7             1.2640    -2.1319    -0.0215 C.2     
   8 N8            -1.1304    -0.7469     0.0093 N.2     
   9 C9            -1.0909    -2.0455     0.0024 C.2     
  10 N10            0.0640    -2.7606    -0.0134 N.am    
  11 C11            0.0114    -4.2246    -0.0208 C.3     
  12 C12           -1.1935    -4.9243     2.0577 C.ar    
  13 C13            0.0070    -4.7343     1.3974 C.ar    
  14 C14            1.2034    -5.0108     2.0341 C.ar    
  15 C15           -1.2032    -5.3913     3.3565 C.ar    
  16 C16           -0.0012    -5.6717     4.0022 C.ar    
  17 C17            1.2050    -5.4786     3.3326 C.ar    
  18 C18           -0.0056    -6.1748     5.3991 C.2     
  19 O19            2.3076    -2.7577    -0.0353 O.2     
  20 C20           -1.1437    -6.4213     6.1914 C.2     
  21 N21           -0.7412    -6.8555     7.3562 N.2     
  22 N22            0.6581    -6.9029     7.3540 N.pl3   
  23 C23            1.0919    -6.4878     6.1468 C.2     
  24 C24            1.5047    -7.3344     8.4691 C.3     
  25 H25           -0.9597     1.9202     0.0170 H       
  26 H26            3.3881    -0.3653    -0.0325 H       
  27 H27            3.1884     2.0886    -0.0185 H       
  28 H28           -2.0262    -2.5853     0.0092 H       
  29 H29           -0.8959    -4.5530    -0.5277 H       
  30 H30            0.8828    -4.6169    -0.5451 H       
  31 H31           -2.1247    -4.7023     1.5577 H       
  32 H32            2.1380    -4.8607     1.5141 H       
  33 H33           -2.1411    -5.5389     3.8713 H       
  34 H34            2.1397    -5.6949     3.8286 H       
  35 H35           -2.1703    -6.2765     5.8889 H       
  36 H36            2.1217    -6.4144     5.8297 H       
  37 H37            1.6817    -8.4075     8.3967 H       
  38 H38            2.4569    -6.8056     8.4281 H       
  39 H39            1.0054    -7.1113     9.4119 H       
@<TRIPOS>BOND
   1    1    2 ar
   2    1    6 ar
   3    1   25 1
   4    2    3 ar
   5    2    8 1
   6    3    4 ar
   7    3    7 1
   8    4    5 ar
   9    4   26 1
  10    5    6 ar
  11    5   27 1
  12    7   10 am
  13    7   19 2
  14    8    9 2
  15    9   10 1
  16    9   28 1
  17   10   11 1
  18   11   13 1
  19   11   29 1
  20   11   30 1
  21   12   15 ar
  22   12   13 ar
  23   12   31 1
  24   13   14 ar
  25   14   17 ar
  26   14   32 1
  27   15   16 ar
  28   15   33 1
  29   16   17 ar
  30   16   18 1
  31   17   34 1
  32   18   23 2
  33   18   20 1
  34   20   21 2
  35   20   35 1
  36   21   22 1
  37   22   23 1
  38   22   24 1
  39   23   36 1
  40   24   37 1
  41   24   38 1
  42   24   39 1

#	End of record

