#	Name: ASD06170394
#	Creating user name:	WinNT
#	Creation time:	15. 06. 2019 21:05

#	Modifying user name:	WinNT
#	Modification time:	15. 06. 2019 21:05

#	Program:	/corina/corina34_cracker 3.40 0067  02.08.2006

@<TRIPOS>MOLECULE
ASD06170394
  79   83    0    0    0
SMALL
NO_CHARGES


@<TRIPOS>ATOM
   1 N1             0.6578     1.9678     0.2414 N.am    
   2 N2             0.2198     3.1465    -0.3696 N.pl3   
   3 C3             1.2783     3.8912    -0.7416 C.2     
   4 C4             2.4325     3.2216    -0.3850 C.2     
   5 C5             2.0069     1.9672     0.2559 C.2     
   6 C6             3.8123     3.6724    -0.6029 C.2     
   7 O7             4.0250     4.7386    -1.1497 O.2     
   8 N8             4.8438     2.9055    -0.1974 N.am    
   9 C9             6.1584     3.2865    -0.4936 C.ar    
  10 C10            6.5066     4.6305    -0.5023 C.ar    
  11 C11            8.7595     4.0375    -1.0799 C.ar    
  12 C12            8.4121     2.6950    -1.0649 C.ar    
  13 C13            7.1154     2.3197    -0.7731 C.ar    
  14 O14           10.0368     4.4060    -1.3678 O.3     
  15 N15           12.5392     5.0534     1.7522 N.ar    
  16 C16           13.0565     5.1172     0.5277 C.ar    
  17 C17           12.2270     4.8999    -0.5677 C.ar    
  18 C18           10.8846     4.6241    -0.3332 C.ar    
  19 N19           10.4444     4.5777     0.9209 N.ar    
  20 C20           11.2615     4.7888     1.9329 C.ar    
  21 O21            2.7298     1.1000     0.7101 O.2     
  22 C22           -0.1648     0.9608     0.7568 C.ar    
  23 C23           -1.1783     0.4220    -0.0251 C.ar    
  24 C24           -1.9885    -0.5725     0.4867 C.ar    
  25 C25            7.8048     5.0056    -0.7949 C.ar    
  26 C26            1.2144     5.2294    -1.4317 C.3     
  27 C27           -1.1828     3.5163    -0.5755 C.3     
  28 C28           -1.7914    -1.0319     1.7760 C.ar    
  29 C29           -0.7834    -0.4973     2.5572 C.ar    
  30 C30            0.0339     0.4935     2.0495 C.ar    
  31 N31           14.4065     5.3975     0.3458 N.am    
  32 C32           15.2240     5.4963     1.4128 C.2     
  33 N33           16.5097     5.8639     1.2449 N.am    
  34 O34           14.8015     5.2539     2.5267 O.2     
  35 F35            8.1447     6.3131    -0.8041 F       
  36 C36           -1.6777     4.3271     0.6239 C.3     
  37 C37           -3.1425     4.7133     0.4090 C.3     
  38 C38           17.5101     6.0052     2.3185 C.3     
  39 C39           17.1486     6.1840    -0.0400 C.3     
  40 C40           18.6256     6.5211     0.2541 C.3     
  41 C41           18.8771     5.8199     1.6137 C.3     
  42 N42           19.9488     6.4906     2.3617 N.3     
  43 C43           20.1871     5.8261     3.6500 C.3     
  44 C44           21.1829     6.5573     1.5676 C.3     
  45 H45            4.6756     2.0897     0.2996 H       
  46 H46            5.7637     5.3826    -0.2809 H       
  47 H47            9.1558     1.9426    -1.2818 H       
  48 H48            6.8456     1.2740    -0.7620 H       
  49 H49           12.6155     4.9449    -1.5744 H       
  50 H50           10.8723     4.7440     2.9394 H       
  51 H51           -1.3330     0.7806    -1.0320 H       
  52 H52           -2.7771    -0.9917    -0.1207 H       
  53 H53            1.1890     6.0226    -0.6845 H       
  54 H54            2.0931     5.3543    -2.0644 H       
  55 H55            0.3149     5.2792    -2.0452 H       
  56 H56           -1.2712     4.1164    -1.4811 H       
  57 H57           -1.7853     2.6137    -0.6774 H       
  58 H58           -2.4263    -1.8098     2.1738 H       
  59 H59           -0.6323    -0.8580     3.5639 H       
  60 H60            0.8209     0.9108     2.6602 H       
  61 H61           14.7597     5.5220    -0.5490 H       
  62 H62           -1.5894     3.7270     1.5296 H       
  63 H63           -1.0752     5.2297     0.7259 H       
  64 H64           -3.4951     5.2909     1.2634 H       
  65 H65           -3.2309     5.3134    -0.4967 H       
  66 H66           -3.7450     3.8107     0.3070 H       
  67 H67           17.4465     6.9961     2.7682 H       
  68 H68           17.3659     5.2342     3.0753 H       
  69 H69           17.0904     5.3242    -0.7074 H       
  70 H70           16.6559     7.0432    -0.4951 H       
  71 H71           19.2763     6.1079    -0.5165 H       
  72 H72           18.7653     7.5985     0.3413 H       
  73 H73           19.1037     4.7632     1.4722 H       
  74 H74           20.4777     4.7900     3.4761 H       
  75 H75           20.9851     6.3427     4.1832 H       
  76 H76           19.2752     5.8524     4.2465 H       
  77 H77           20.9950     7.1152     0.6503 H       
  78 H78           21.9598     7.0584     2.1449 H       
  79 H79           21.5096     5.5477     1.3183 H       
@<TRIPOS>BOND
   1    1    2 1
   2    1    5 am
   3    1   22 1
   4    2    3 1
   5    2   27 1
   6    3    4 2
   7    3   26 1
   8    4    5 1
   9    4    6 1
  10    5   21 2
  11    6    7 2
  12    6    8 am
  13    8    9 1
  14    8   45 1
  15    9   10 ar
  16    9   13 ar
  17   10   25 ar
  18   10   46 1
  19   11   12 ar
  20   11   14 1
  21   11   25 ar
  22   12   13 ar
  23   12   47 1
  24   13   48 1
  25   14   18 1
  26   15   16 ar
  27   15   20 ar
  28   16   17 ar
  29   16   31 1
  30   17   18 ar
  31   17   49 1
  32   18   19 ar
  33   19   20 ar
  34   20   50 1
  35   22   23 ar
  36   22   30 ar
  37   23   24 ar
  38   23   51 1
  39   24   28 ar
  40   24   52 1
  41   25   35 1
  42   26   53 1
  43   26   54 1
  44   26   55 1
  45   27   36 1
  46   27   56 1
  47   27   57 1
  48   28   29 ar
  49   28   58 1
  50   29   30 ar
  51   29   59 1
  52   30   60 1
  53   31   32 am
  54   31   61 1
  55   32   33 am
  56   32   34 2
  57   33   39 1
  58   33   38 1
  59   36   37 1
  60   36   62 1
  61   36   63 1
  62   37   64 1
  63   37   65 1
  64   37   66 1
  65   38   41 1
  66   38   67 1
  67   38   68 1
  68   39   40 1
  69   39   69 1
  70   39   70 1
  71   40   41 1
  72   40   71 1
  73   40   72 1
  74   41   42 1
  75   41   73 1
  76   42   43 1
  77   42   44 1
  78   43   74 1
  79   43   75 1
  80   43   76 1
  81   44   77 1
  82   44   78 1
  83   44   79 1

#	End of record

