#	Name: ASD01881489
#	Creating user name:	WinNT
#	Creation time:	15. 06. 2019 19:42

#	Modifying user name:	WinNT
#	Modification time:	15. 06. 2019 19:42

#	Program:	/corina/corina34_cracker 3.40 0067  02.08.2006

@<TRIPOS>MOLECULE
ASD01881489
  24   25    0    0    0
SMALL
NO_CHARGES


@<TRIPOS>ATOM
   1 C1            -0.0187     1.5262     0.0104 C.3     
   2 C2             0.0021    -0.0041     0.0020 C.3     
   3 C3             1.2851    -0.4843     0.7294 C.3     
   4 S4             2.5321     0.6931     0.0673 S.o2    
   5 C5             1.3949     2.1277     0.0002 C.3     
   6 C6             0.4908     2.2745    -1.2243 C.3     
   7 O7             3.5356     0.9254     1.0463 O.2     
   8 O8             2.8987     0.3082    -1.2506 O.2     
   9 C9            -1.2145    -0.5319     0.7178 C.2     
  10 O10           -1.6859    -1.7548     0.4279 O.3     
  11 O11           -1.7657     0.1458     1.5526 O.2     
  12 N12            0.0078    -0.4909    -1.3839 N.3     
  13 C13           -0.0902     3.6374    -1.5001 C.2     
  14 O14            0.3155     4.3354    -2.5724 O.3     
  15 O15           -0.9213     4.1017    -0.7560 O.2     
  16 H16           -0.8035     2.0009     0.5994 H       
  17 H17            1.1846    -0.3823     1.8100 H       
  18 H18            1.5304    -1.5103     0.4554 H       
  19 H19            1.6494     3.0016     0.6000 H       
  20 H20            0.7373     1.6818    -2.1052 H       
  21 H21           -2.4686    -2.0500     0.9131 H       
  22 H22            0.0215    -1.4994    -1.4129 H       
  23 H23           -0.7789    -0.1250    -1.8990 H       
  24 H24           -0.0858     5.2047    -2.7078 H       
@<TRIPOS>BOND
   1    1    2 1
   2    1    5 1
   3    1    6 1
   4    1   16 1
   5    2    3 1
   6    2    9 1
   7    2   12 1
   8    3    4 1
   9    3   17 1
  10    3   18 1
  11    4    7 2
  12    4    8 2
  13    4    5 1
  14    5    6 1
  15    5   19 1
  16    6   13 1
  17    6   20 1
  18    9   10 1
  19    9   11 2
  20   10   21 1
  21   12   22 1
  22   12   23 1
  23   13   14 1
  24   13   15 2
  25   14   24 1

#	End of record

