#	Name: ASD01141110
#	Creating user name:	WinNT
#	Creation time:	15. 06. 2019 19:01

#	Modifying user name:	WinNT
#	Modification time:	15. 06. 2019 19:01

#	Program:	/corina/corina34_cracker 3.40 0067  02.08.2006

@<TRIPOS>MOLECULE
ASD01141110
  54   58    0    0    0
SMALL
NO_CHARGES


@<TRIPOS>ATOM
   1 C1            -0.0189     1.5394     0.0105 C.3     
   2 C2             0.0021    -0.0041     0.0020 C.3     
   3 C3             1.4347     1.9785    -0.0010 C.3     
   4 C4             1.5001    -0.4155     0.0649 C.3     
   5 C5             1.9270     2.0928    -1.4451 C.3     
   6 C6             2.1659     0.8057     0.7097 C.3     
   7 C7             1.7803     3.2440     0.7578 C.3     
   8 C8             3.6469     0.9761     0.4300 C.3     
   9 H9             1.9772     0.8329     1.7829 H       
  10 C10            3.2925     3.4746     0.5977 C.3     
  11 C11            4.4405    -0.1876     1.0255 C.3     
  12 C12            4.0933     2.2845     1.1008 C.3     
  13 H13            3.8131     1.0389    -0.6455 H       
  14 C14            5.9323     0.0279     0.7616 C.3     
  15 H15            4.2646    -0.2355     2.1002 H       
  16 C16            5.5825     2.5026     0.8289 C.3     
  17 H17            3.9508     2.1958     2.1778 H       
  18 C18            6.3841     1.3369     1.4116 C.3     
  19 C19            6.0350     3.8097     1.4831 C.3     
  20 C20            7.8734     1.5551     1.1361 C.3     
  21 H21            6.2184     1.2842     2.4876 H       
  22 C22            7.5242     4.0283     1.2083 C.3     
  23 C23            8.3264     2.8623     1.7894 C.3     
  24 O24            8.1084     2.7904     3.1998 O.3     
  25 H25            8.3735     3.5868     3.6799 H       
  26 C26            5.8191     2.5799    -0.6807 C.3     
  27 H27            3.5183     3.6396    -0.4559 H       
  28 O28           -1.0445     2.2595    -0.6616 O.3     
  29 C29           -1.0994     2.3015     0.7673 C.3     
  30 H30           -0.5300    -0.3912     0.8710 H       
  31 H31           -0.4520    -0.3803    -0.9147 H       
  32 H32            1.6311    -1.3000     0.6883 H       
  33 H33            1.8953    -0.5863    -0.9364 H       
  34 H34            1.3401     2.8462    -1.9705 H       
  35 H35            2.9777     2.3830    -1.4489 H       
  36 H36            1.8141     1.1307    -1.9447 H       
  37 H37            1.2303     4.0880     0.3414 H       
  38 H38            1.5332     3.1232     1.8125 H       
  39 H39            3.5802     4.3596     1.1654 H       
  40 H40            4.1201    -1.1210     0.5626 H       
  41 H41            6.4992    -0.8017     1.1840 H       
  42 H42            6.1074     0.0769    -0.3131 H       
  43 H43            5.4633     4.6402     1.0690 H       
  44 H44            5.8683     3.7543     2.5588 H       
  45 H45            8.4451     0.7247     1.5504 H       
  46 H46            8.0397     1.6099     0.0602 H       
  47 H47            7.6909     4.0837     0.1325 H       
  48 H48            7.8468     4.9594     1.6743 H       
  49 H49            9.3873     3.0178     1.5933 H       
  50 H50            5.2484     3.4106    -1.0959 H       
  51 H51            6.8804     2.7354    -0.8746 H       
  52 H52            5.4971     1.6488    -1.1471 H       
  53 H53           -1.8777     1.7216     1.2633 H       
  54 H54           -0.8153     3.2315     1.2597 H       
@<TRIPOS>BOND
   1    1    2 1
   2    1    3 1
   3    1   28 1
   4    1   29 1
   5    2    4 1
   6    2   30 1
   7    2   31 1
   8    3    5 1
   9    3    6 1
  10    3    7 1
  11    4    6 1
  12    4   32 1
  13    4   33 1
  14    5   34 1
  15    5   35 1
  16    5   36 1
  17    6    8 1
  18    6    9 1
  19    7   10 1
  20    7   37 1
  21    7   38 1
  22    8   12 1
  23    8   13 1
  24    8   11 1
  25   10   12 1
  26   10   27 1
  27   10   39 1
  28   11   15 1
  29   11   14 1
  30   11   40 1
  31   12   16 1
  32   12   17 1
  33   14   18 1
  34   14   41 1
  35   14   42 1
  36   16   18 1
  37   16   26 1
  38   16   19 1
  39   18   20 1
  40   18   21 1
  41   19   22 1
  42   19   43 1
  43   19   44 1
  44   20   23 1
  45   20   45 1
  46   20   46 1
  47   22   23 1
  48   22   47 1
  49   22   48 1
  50   23   24 1
  51   23   49 1
  52   24   25 1
  53   26   50 1
  54   26   51 1
  55   26   52 1
  56   28   29 1
  57   29   53 1
  58   29   54 1

#	End of record

