#	Name: ASD02408399
#	Creating user name:	WinNT
#	Creation time:	15. 06. 2019 20:21

#	Modifying user name:	WinNT
#	Modification time:	15. 06. 2019 20:21

#	Program:	/corina/corina34_cracker 3.40 0067  02.08.2006

@<TRIPOS>MOLECULE
ASD02408399
  25   26    0    0    0
SMALL
NO_CHARGES


@<TRIPOS>ATOM
   1 C1             0.0037     1.3754    -0.2946 C.2     
   2 C2             0.0107    -0.0143    -0.0285 C.2     
   3 C3             1.3130     1.8258    -0.1406 C.2     
   4 N4             2.0633     0.7551     0.2009 N.pl3   
   5 N5             1.2310    -0.3677     0.2624 N.2     
   6 C6             3.4430     0.7672     0.4506 C.ar    
   7 C7             3.9912     1.7358     1.2792 C.ar    
   8 C8             5.3512     1.7455     1.5236 C.ar    
   9 C9             6.1668     0.7916     0.9439 C.ar    
  10 C10            5.6253    -0.1757     0.1169 C.ar    
  11 C11            4.2643    -0.1950    -0.1271 C.ar    
  12 N12            1.7597     3.1210    -0.3060 N.pl3   
  13 C13           -1.1606     2.1871    -0.6682 C.2     
  14 N14           -2.3736     1.6114    -0.7860 N.am    
  15 O15           -1.0309     3.3798    -0.8716 O.2     
  16 F16            3.7350    -1.1398    -0.9348 F       
  17 H17           -0.8474    -0.6693    -0.0605 H       
  18 H18            3.3555     2.4819     1.7326 H       
  19 H19            5.7778     2.4997     2.1682 H       
  20 H20            7.2294     0.8019     1.1369 H       
  21 H21            6.2652    -0.9193    -0.3348 H       
  22 H22            1.1241     3.8371    -0.4614 H       
  23 H23            2.7092     3.3153    -0.2670 H       
  24 H24           -2.4770     0.6607    -0.6239 H       
  25 H25           -3.1431     2.1479    -1.0329 H       
@<TRIPOS>BOND
   1    1    2 1
   2    1    3 2
   3    1   13 1
   4    2    5 2
   5    2   17 1
   6    3    4 1
   7    3   12 1
   8    4    5 1
   9    4    6 1
  10    6    7 ar
  11    6   11 ar
  12    7    8 ar
  13    7   18 1
  14    8    9 ar
  15    8   19 1
  16    9   10 ar
  17    9   20 1
  18   10   11 ar
  19   10   21 1
  20   11   16 1
  21   12   22 1
  22   12   23 1
  23   13   14 am
  24   13   15 2
  25   14   24 1
  26   14   25 1

#	End of record

