#	Name: ASD03091428
#	Creating user name:	WinNT
#	Creation time:	15. 06. 2019 20:30

#	Modifying user name:	WinNT
#	Modification time:	15. 06. 2019 20:30

#	Program:	/corina/corina34_cracker 3.40 0067  02.08.2006

@<TRIPOS>MOLECULE
ASD03091428
  44   47    0    0    0
SMALL
NO_CHARGES


@<TRIPOS>ATOM
   1 C1             0.0360     1.6969    -0.0466 C.3     
   2 C2            -0.0005     0.1688    -0.1139 C.3     
   3 N3             0.6548    -0.3907     1.0753 N.3     
   4 C4            -0.0471     0.0049     2.3029 C.3     
   5 C5            -0.0126     1.5280     2.4442 C.3     
   6 C6             1.4443     1.9972     2.5208 C.3     
   7 N7             2.1063     1.6913     1.2453 N.am    
   8 C8             1.4937     2.1678    -0.0022 C.3     
   9 C9            -0.6816     2.1656     1.2228 C.3     
  10 C10            3.2546     0.9861     1.2201 C.2     
  11 O11            3.8144     0.6971     2.2618 O.2     
  12 O12            3.2424     0.6979    -1.2689 O.3     
  13 C13            3.8288     0.5676    -0.0602 C.2     
  14 C14            5.0609    -0.0263    -0.2362 C.2     
  15 C15            5.2090    -0.2566    -1.6052 C.2     
  16 C16            4.0599     0.2058    -2.2173 C.2     
  17 C17            3.7854     0.1668    -3.6222 C.1     
  18 C18            3.5603     0.1349    -4.7740 C.1     
  19 C19            3.2858     0.0959    -6.1789 C.ar    
  20 C20            4.2241    -0.4447    -7.0636 C.ar    
  21 C21            3.9524    -0.4786    -8.4151 C.ar    
  22 C22            2.7549     0.0211    -8.8966 C.ar    
  23 C23            1.8214     0.5582    -8.0274 C.ar    
  24 C24            2.0755     0.5932    -6.6725 C.ar    
  25 H25           -0.4556     2.1131    -0.9259 H       
  26 H26           -1.0364    -0.1685    -0.1502 H       
  27 H27            0.5225    -0.1679    -1.0090 H       
  28 H28            0.7287    -1.3948     1.0086 H       
  29 H29           -1.0826    -0.3318     2.2538 H       
  30 H30            0.4421    -0.4508     3.1638 H       
  31 H31           -0.5394     1.8227     3.3518 H       
  32 H32            1.4732     3.0721     2.6991 H       
  33 H33            1.9539     1.4761     3.3313 H       
  34 H34            2.0358     1.7591    -0.8549 H       
  35 H35            1.5271     3.2568    -0.0331 H       
  36 H36           -0.6174     3.2512     1.2977 H       
  37 H37           -1.7282     1.8639     1.1819 H       
  38 H38            5.7751    -0.2670     0.5373 H       
  39 H39            6.0597    -0.7095    -2.0927 H       
  40 H40            5.1592    -0.8344    -6.6894 H       
  41 H41            4.6760    -0.8959    -9.0996 H       
  42 H42            2.5480    -0.0079    -9.9562 H       
  43 H43            0.8895     0.9469    -8.4107 H       
  44 H44            1.3441     1.0082    -5.9949 H       
@<TRIPOS>BOND
   1    1    2 1
   2    1    8 1
   3    1    9 1
   4    1   25 1
   5    2    3 1
   6    2   26 1
   7    2   27 1
   8    3    4 1
   9    3   28 1
  10    4    5 1
  11    4   29 1
  12    4   30 1
  13    5    6 1
  14    5    9 1
  15    5   31 1
  16    6    7 1
  17    6   32 1
  18    6   33 1
  19    7    8 1
  20    7   10 am
  21    8   34 1
  22    8   35 1
  23    9   36 1
  24    9   37 1
  25   10   11 2
  26   10   13 1
  27   12   13 1
  28   12   16 1
  29   13   14 2
  30   14   15 1
  31   14   38 1
  32   15   16 2
  33   15   39 1
  34   16   17 1
  35   17   18 3
  36   18   19 1
  37   19   20 ar
  38   19   24 ar
  39   20   21 ar
  40   20   40 1
  41   21   22 ar
  42   21   41 1
  43   22   23 ar
  44   22   42 1
  45   23   24 ar
  46   23   43 1
  47   24   44 1

#	End of record

