#	Name: ASD00843339
#	Creating user name:	WinNT
#	Creation time:	15. 06. 2019 18:46

#	Modifying user name:	WinNT
#	Modification time:	15. 06. 2019 18:46

#	Program:	/corina/corina34_cracker 3.40 0067  02.08.2006

@<TRIPOS>MOLECULE
ASD00843339
  92   97    0    0    0
SMALL
NO_CHARGES


@<TRIPOS>ATOM
   1 N1             0.8880     1.0187    -0.4109 N.ar    
   2 C2             1.0523    -0.2735    -0.6395 C.ar    
   3 C3             0.8977    -1.1987     0.3852 C.ar    
   4 C4             0.5687    -0.7511     1.6525 C.ar    
   5 C5             0.4051     0.6131     1.8511 C.ar    
   6 C6             0.5742     1.4757     0.7867 C.ar    
   7 C7             1.0854    -2.6703     0.1199 C.3     
   8 C8             0.7244    -3.4808     1.3465 C.2     
   9 C9             0.2436    -3.1092    -1.0799 C.3     
  10 C10           -1.1950    -2.7220    -0.8527 C.2     
  11 N11           -2.1434    -3.1090    -1.7286 N.am    
  12 O12           -1.4993    -2.0621     0.1183 O.2     
  13 C13           -3.5340    -2.6512    -1.5868 C.3     
  14 C14           -3.9957    -2.0740    -2.9291 C.3     
  15 N15           -3.7738    -3.0675    -3.9881 N.3     
  16 C16           -2.3448    -3.3699    -4.1442 C.3     
  17 C17           -1.8141    -3.9954    -2.8552 C.3     
  18 C18           -4.3594    -2.6217    -5.2594 C.3     
  19 C19           -4.0024    -3.6191    -6.3650 C.3     
  20 C20           -4.6655    -3.1820    -7.6732 C.3     
  21 N21           -6.1215    -3.1266    -7.4907 N.3     
  22 C22           -6.4912    -2.1409    -6.4670 C.3     
  23 C23           -5.8827    -2.5468    -5.1228 C.3     
  24 H24           -6.5883    -2.9332    -8.3641 H       
  25 O25           -0.3612    -3.5268     1.8852 O.2     
  26 N26            1.8316    -4.1402     1.7258 N.am    
  27 C27            2.5461    -2.9852    -0.1102 C.ar    
  28 C28            2.9171    -3.8739     0.8960 C.ar    
  29 C29            3.4497    -2.5699    -1.0552 C.ar    
  30 C30            4.7664    -3.0421    -1.0141 C.ar    
  31 C31            5.1466    -3.9357    -0.0055 C.ar    
  32 C32            4.2289    -4.3465     0.9375 C.ar    
  33 F33            6.4153    -4.3973     0.0429 F       
  34 C34            1.4848    -6.7695     2.4616 C.ar    
  35 C35            0.2126    -7.0270     1.9714 C.ar    
  36 C36            2.4301    -7.7770     2.4966 C.ar    
  37 C37            2.1113    -9.0425     2.0435 C.ar    
  38 C38            0.8400    -9.3052     1.5523 C.ar    
  39 C39           -0.1100    -8.2965     1.5165 C.ar    
  40 O40            0.5268   -10.5504     1.1072 O.3     
  41 O41           -0.7167    -6.0360     1.9376 O.3     
  42 C42            1.5547   -11.5409     1.1741 C.3     
  43 C43           -2.0055    -6.3725     1.4202 C.3     
  44 C44           -2.9097    -5.1389     1.4614 C.3     
  45 S45            1.8977    -5.1547     3.0330 S.o2    
  46 O46            3.2606    -5.2066     3.4321 O.2     
  47 O47            0.8476    -4.7564     3.9036 O.2     
  48 O48            1.3744    -0.6996    -1.8867 O.3     
  49 C49            1.4686     0.2954    -2.9080 C.3     
  50 C50            1.9372    -0.3545    -4.2114 C.3     
  51 F51            3.1486    -1.0189    -3.9920 F       
  52 F52            0.9748    -1.2714    -4.6477 F       
  53 C53            5.7173    -2.6151    -1.9961 C.1     
  54 N54            6.4716    -2.2764    -2.7750 N.1     
  55 H55            0.4418    -1.4472     2.4685 H       
  56 H56            0.1479     0.9955     2.8279 H       
  57 H57            0.4484     2.5379     0.9359 H       
  58 H58            0.6133    -2.6206    -1.9814 H       
  59 H59            0.3146    -4.1905    -1.1975 H       
  60 H60           -4.1701    -3.4925    -1.3118 H       
  61 H61           -3.5891    -1.8802    -0.8183 H       
  62 H62           -5.0569    -1.8311    -2.8748 H       
  63 H63           -3.4266    -1.1715    -3.1520 H       
  64 H64           -2.2086    -4.0669    -4.9711 H       
  65 H65           -1.7986    -2.4494    -4.3501 H       
  66 H66           -0.7330    -4.1156    -2.9246 H       
  67 H67           -2.2840    -4.9663    -2.6989 H       
  68 H68           -3.9670    -1.6376    -5.5160 H       
  69 H69           -2.9207    -3.6451    -6.4962 H       
  70 H70           -4.3601    -4.6112    -6.0894 H       
  71 H71           -4.2970    -2.1958    -7.9553 H       
  72 H72           -4.4250    -3.8980    -8.4591 H       
  73 H73           -6.1142    -1.1595    -6.7548 H       
  74 H74           -7.5767    -2.1006    -6.3768 H       
  75 H75           -6.2699    -3.5220    -4.8277 H       
  76 H76           -6.1443    -1.8067    -4.3665 H       
  77 H77            3.1456    -1.8806    -1.8291 H       
  78 H78            4.5274    -5.0360     1.7133 H       
  79 H79            3.4198    -7.5745     2.8785 H       
  80 H80            2.8519    -9.8281     2.0713 H       
  81 H81           -1.0999    -8.4990     1.1349 H       
  82 H82            2.4069   -11.2212     0.5744 H       
  83 H83            1.8676   -11.6703     2.2102 H       
  84 H84            1.1736   -12.4866     0.7888 H       
  85 H85           -1.9055    -6.7154     0.3904 H       
  86 H86           -2.4446    -7.1652     2.0260 H       
  87 H87           -3.8927    -5.3956     1.0667 H       
  88 H88           -3.0097    -4.7960     2.4912 H       
  89 H89           -2.4706    -4.3463     0.8555 H       
  90 H90            0.4911     0.7528    -3.0610 H       
  91 H91            2.1842     1.0600    -2.6055 H       
  92 H92            2.0770     0.4145    -4.9711 H       
@<TRIPOS>BOND
   1    1    2 ar
   2    1    6 ar
   3    2    3 ar
   4    2   48 1
   5    3    4 ar
   6    3    7 1
   7    4    5 ar
   8    4   55 1
   9    5    6 ar
  10    5   56 1
  11    6   57 1
  12    7    8 1
  13    7    9 1
  14    7   27 1
  15    8   25 2
  16    8   26 am
  17    9   10 1
  18    9   58 1
  19    9   59 1
  20   10   11 am
  21   10   12 2
  22   11   13 1
  23   11   17 1
  24   13   14 1
  25   13   60 1
  26   13   61 1
  27   14   15 1
  28   14   62 1
  29   14   63 1
  30   15   16 1
  31   15   18 1
  32   16   17 1
  33   16   64 1
  34   16   65 1
  35   17   66 1
  36   17   67 1
  37   18   19 1
  38   18   23 1
  39   18   68 1
  40   19   20 1
  41   19   69 1
  42   19   70 1
  43   20   21 1
  44   20   71 1
  45   20   72 1
  46   21   22 1
  47   21   24 1
  48   22   23 1
  49   22   73 1
  50   22   74 1
  51   23   75 1
  52   23   76 1
  53   26   45 am
  54   26   28 1
  55   27   28 ar
  56   27   29 ar
  57   28   32 ar
  58   29   30 ar
  59   29   77 1
  60   30   31 ar
  61   30   53 1
  62   31   32 ar
  63   31   33 1
  64   32   78 1
  65   34   35 ar
  66   34   36 ar
  67   34   45 1
  68   35   41 1
  69   35   39 ar
  70   36   37 ar
  71   36   79 1
  72   37   38 ar
  73   37   80 1
  74   38   39 ar
  75   38   40 1
  76   39   81 1
  77   40   42 1
  78   41   43 1
  79   42   82 1
  80   42   83 1
  81   42   84 1
  82   43   44 1
  83   43   85 1
  84   43   86 1
  85   44   87 1
  86   44   88 1
  87   44   89 1
  88   45   46 2
  89   45   47 2
  90   48   49 1
  91   49   50 1
  92   49   90 1
  93   49   91 1
  94   50   51 1
  95   50   52 1
  96   50   92 1
  97   53   54 3

#	End of record

