#	Name: ASD01900252
#	Creating user name:	WinNT
#	Creation time:	15. 06. 2019 19:51

#	Modifying user name:	WinNT
#	Modification time:	15. 06. 2019 19:51

#	Program:	/corina/corina34_cracker 3.40 0067  02.08.2006

@<TRIPOS>MOLECULE
ASD01900252
  46   48    0    0    0
SMALL
NO_CHARGES


@<TRIPOS>ATOM
   1 C1            -1.1771     1.5429    -1.1742 C.2     
   2 C2            -1.2749     0.0410    -1.2487 C.3     
   3 O3            -1.0916     2.1938    -2.1886 O.2     
   4 O4            -1.1905     2.1584     0.0194 O.3     
   5 C5            -1.0329     3.5065     0.0194 C.ar    
   6 C6            -2.1460     4.3453    -0.1278 C.ar    
   7 C7            -1.9714     5.7307    -0.1263 C.ar    
   8 C8            -0.7086     6.2641     0.0195 C.ar    
   9 C9             0.3887     5.4320     0.1647 C.ar    
  10 C10            0.2290     4.0599     0.1707 C.ar    
  11 C11           -3.4950     3.7676    -0.2840 C.2     
  12 N12           -4.5628     4.5777    -0.4252 N.am    
  13 O13           -3.6431     2.5605    -0.2852 O.2     
  14 N14           -8.0251     3.8131    -0.8366 N.am    
  15 C15           -7.0037     4.7159    -0.7243 C.2     
  16 C16           -5.8486     4.0270    -0.5741 C.2     
  17 C17           -6.1734     2.6524    -0.5950 C.2     
  18 C18           -7.5084     2.5542    -0.7564 C.2     
  19 S19           -9.6265     4.1877    -1.0306 S.o2    
  20 O20          -10.3609     3.0667    -0.5582 O.2     
  21 O21           -9.7965     5.5012    -0.5158 O.2     
  22 C22           -9.9322     4.2888    -2.7629 C.ar    
  23 C23          -10.3226     3.1622    -3.4629 C.ar    
  24 C24          -10.4124     4.4475    -5.4810 C.ar    
  25 C25           -9.7873     5.4956    -3.4210 C.ar    
  26 C26          -10.5624     3.2415    -4.8217 C.ar    
  27 C27          -10.0273     5.5749    -4.7803 C.ar    
  28 C28          -10.9870     2.0134    -5.5849 C.3     
  29 H29           -1.2531    -0.2733    -2.2922 H       
  30 H30           -0.4340    -0.4047    -0.7173 H       
  31 H31           -2.2085    -0.2855    -0.7904 H       
  32 H32           -2.8244     6.3834    -0.2396 H       
  33 H33           -0.5744     7.3358     0.0202 H       
  34 H34            1.3745     5.8583     0.2784 H       
  35 H35            1.0890     3.4173     0.2892 H       
  36 H36           -4.4446     5.5404    -0.4243 H       
  37 H37           -7.1018     5.7911    -0.7513 H       
  38 H38           -5.4792     1.8305    -0.4997 H       
  39 H39           -8.0723     1.6348    -0.8123 H       
  40 H40          -10.4398     2.2202    -2.9479 H       
  41 H41          -10.5995     4.5094    -6.5428 H       
  42 H42           -9.4870     6.3766    -2.8733 H       
  43 H43           -9.9101     6.5170    -5.2952 H       
  44 H44          -12.0746     1.9416    -5.5819 H       
  45 H45          -10.6302     2.0828    -6.6125 H       
  46 H46          -10.5631     1.1273    -5.1122 H       
@<TRIPOS>BOND
   1    1    2 1
   2    1    3 2
   3    1    4 1
   4    2   29 1
   5    2   30 1
   6    2   31 1
   7    4    5 1
   8    5    6 ar
   9    5   10 ar
  10    6    7 ar
  11    6   11 1
  12    7    8 ar
  13    7   32 1
  14    8    9 ar
  15    8   33 1
  16    9   10 ar
  17    9   34 1
  18   10   35 1
  19   11   12 am
  20   11   13 2
  21   12   16 1
  22   12   36 1
  23   14   15 1
  24   14   18 1
  25   14   19 am
  26   15   16 2
  27   15   37 1
  28   16   17 1
  29   17   18 2
  30   17   38 1
  31   18   39 1
  32   19   20 2
  33   19   21 2
  34   19   22 1
  35   22   23 ar
  36   22   25 ar
  37   23   26 ar
  38   23   40 1
  39   24   26 ar
  40   24   27 ar
  41   24   41 1
  42   25   27 ar
  43   25   42 1
  44   26   28 1
  45   27   43 1
  46   28   44 1
  47   28   45 1
  48   28   46 1

#	End of record

