#	Name: ASD07300423
#	Creating user name:	WinNT
#	Creation time:	15. 06. 2019 21:09

#	Modifying user name:	WinNT
#	Modification time:	15. 06. 2019 21:09

#	Program:	/corina/corina34_cracker 3.40 0067  02.08.2006

@<TRIPOS>MOLECULE
ASD07300423
  49   54    0    0    0
SMALL
NO_CHARGES


@<TRIPOS>ATOM
   1 C1            -0.0173     1.3942    -0.0096 C.ar    
   2 C2             0.0017    -0.0040    -0.0195 C.ar    
   3 C3             1.2195    -0.6672    -0.0396 C.ar    
   4 C4             2.3803     0.0925    -0.0490 C.ar    
   5 C5             2.2874     1.4714    -0.0383 C.ar    
   6 N6             1.1157     2.0769    -0.0193 N.ar    
   7 C7            -2.1141     0.6623     0.0208 C.2     
   8 N8            -1.3545     1.7734     0.0156 N.am    
   9 N9            -1.3238    -0.4278    -0.0057 N.am    
  10 O10           -3.3306     0.6454     0.0412 O.2     
  11 N11           -3.4560     6.9323     0.0909 N.pl3   
  12 C12           -4.9041     6.7095     0.1136 C.3     
  13 C13           -5.0772     5.1819     0.1043 C.3     
  14 C14           -3.6662     4.6387     0.0760 C.ar    
  15 C15           -3.1974     3.3395     0.0580 C.ar    
  16 C16           -1.8319     3.0926     0.0334 C.ar    
  17 C17           -0.9405     4.1572     0.0269 C.ar    
  18 C18           -1.4092     5.4525     0.0448 C.ar    
  19 C19           -2.7824     5.7062     0.0697 C.ar    
  20 C20           -2.5426    10.3633     0.0246 C.ar    
  21 C21           -1.3032     9.7066     0.1297 C.ar    
  22 C22           -0.1345    10.4708     0.1831 C.ar    
  23 C23           -0.2518    11.8479     0.1297 C.ar    
  24 C24           -1.5075    12.4226     0.0263 C.ar    
  25 N25           -2.5978    11.6836    -0.0227 N.ar    
  26 C26           -2.8463     8.1699     0.0853 C.2     
  27 N27           -3.4999     9.3670    -0.0013 N.pl3   
  28 N28           -1.5541     8.3727     0.1573 N.2     
  29 C29           -1.7805    -1.8198    -0.0100 C.3     
  30 C30           -1.9210    -2.3149     1.4309 C.3     
  31 H31            1.2630    -1.7463    -0.0472 H       
  32 H32            3.3470    -0.3889    -0.0642 H       
  33 H33            3.1904     2.0639    -0.0453 H       
  34 H34           -5.3377     7.1336     1.0193 H       
  35 H35           -5.3680     7.1480    -0.7699 H       
  36 H36           -5.5935     4.8523     1.0059 H       
  37 H37           -5.6238     4.8668    -0.7846 H       
  38 H38           -3.8944     2.5146     0.0636 H       
  39 H39            0.1229     3.9693     0.0080 H       
  40 H40           -0.7109     6.2764     0.0400 H       
  41 H41            0.8337     9.9992     0.2642 H       
  42 H42            0.6296    12.4707     0.1688 H       
  43 H43           -1.5952    13.4983    -0.0148 H       
  44 H44           -4.4592     9.4939    -0.0682 H       
  45 H45           -2.7459    -1.8839    -0.5120 H       
  46 H46           -1.0548    -2.4387    -0.5376 H       
  47 H47           -2.6468    -1.6960     1.9586 H       
  48 H48           -2.2608    -3.3506     1.4277 H       
  49 H49           -0.9556    -2.2508     1.9329 H       
@<TRIPOS>BOND
   1    1    2 ar
   2    1    6 ar
   3    1    8 1
   4    2    3 ar
   5    2    9 1
   6    3    4 ar
   7    3   31 1
   8    4    5 ar
   9    4   32 1
  10    5    6 ar
  11    5   33 1
  12    7    8 am
  13    7    9 am
  14    7   10 2
  15    8   16 1
  16    9   29 1
  17   11   12 1
  18   11   19 1
  19   11   26 1
  20   12   13 1
  21   12   34 1
  22   12   35 1
  23   13   14 1
  24   13   36 1
  25   13   37 1
  26   14   15 ar
  27   14   19 ar
  28   15   16 ar
  29   15   38 1
  30   16   17 ar
  31   17   18 ar
  32   17   39 1
  33   18   19 ar
  34   18   40 1
  35   20   21 ar
  36   20   25 ar
  37   20   27 1
  38   21   22 ar
  39   21   28 1
  40   22   23 ar
  41   22   41 1
  42   23   24 ar
  43   23   42 1
  44   24   25 ar
  45   24   43 1
  46   26   27 1
  47   26   28 2
  48   27   44 1
  49   29   30 1
  50   29   45 1
  51   29   46 1
  52   30   47 1
  53   30   48 1
  54   30   49 1

#	End of record

