#	Name: ASD03090872
#	Creating user name:	WinNT
#	Creation time:	15. 06. 2019 20:29

#	Modifying user name:	WinNT
#	Modification time:	15. 06. 2019 20:29

#	Program:	/corina/corina34_cracker 3.40 0067  02.08.2006

@<TRIPOS>MOLECULE
ASD03090872
  54   56    0    0    0
SMALL
NO_CHARGES


@<TRIPOS>ATOM
   1 N1             0.4086     0.7639    -0.8006 N.2     
   2 C2            -0.2078    -0.3845    -1.0945 C.2     
   3 O3             0.3218    -1.1858    -1.8449 O.2     
   4 N4            -1.4153    -0.6568    -0.5612 N.am    
   5 C5            -2.0912    -1.9160    -0.8835 C.3     
   6 C6            -3.3536    -2.0502    -0.0296 C.3     
   7 C7            -3.0442    -1.6280     1.4081 C.3     
   8 C8            -3.0452    -0.1009     1.5026 C.3     
   9 C9            -4.1091    -2.1978     2.3474 C.3     
  10 C10           -1.6689    -2.1631     1.8119 C.3     
  11 C11           -2.4741    -1.9247    -2.3648 C.3     
  12 C12           -1.1518    -3.0881    -0.5926 C.3     
  13 S13            2.5101     0.0401    -2.4014 S.3     
  14 C14            1.6010     1.0328    -1.3273 C.2     
  15 N15            2.3512     2.1461    -1.1291 N.pl3   
  16 C16            3.5478     2.2059    -1.7760 C.2     
  17 C17            3.8682     1.1699    -2.5397 C.2     
  18 C18            5.1236     0.9911    -3.3539 C.3     
  19 O19            0.4285     6.0940     2.2163 O.3     
  20 C20           -0.4716     5.2666     2.9769 C.3     
  21 O21           -0.7671     4.1742     2.0867 O.3     
  22 C22            0.3200     4.0667     1.2680 C.ar    
  23 C23            1.0557     5.2473     1.3473 C.ar    
  24 C24            0.7505     3.0393     0.4460 C.ar    
  25 C25            1.9141     3.1866    -0.2971 C.ar    
  26 C26            2.6449     4.3639    -0.2160 C.ar    
  27 C27            2.2158     5.3903     0.6039 C.ar    
  28 F28            0.1530     4.7993     4.1381 F       
  29 F29           -1.6377     5.9714     3.2941 F       
  30 H30           -1.8367    -0.0191     0.0359 H       
  31 H31           -4.1367    -1.4099    -0.4357 H       
  32 H32           -3.6904    -3.0868    -0.0394 H       
  33 H33           -3.5955     0.3150     0.6586 H       
  34 H34           -3.5222     0.2051     2.4337 H       
  35 H35           -2.0187     0.2650     1.4829 H       
  36 H36           -4.1083    -3.2858     2.2800 H       
  37 H37           -3.8886    -1.8971     3.3716 H       
  38 H38           -5.0889    -1.8167     2.0597 H       
  39 H39           -0.9346    -1.8854     1.0557 H       
  40 H40           -1.3805    -1.7359     2.7724 H       
  41 H41           -1.7117    -3.2490     1.8954 H       
  42 H42           -1.5865    -1.7421    -2.9706 H       
  43 H43           -2.8982    -2.8946    -2.6247 H       
  44 H44           -3.2104    -1.1436    -2.5543 H       
  45 H45           -1.1199    -3.2702     0.4815 H       
  46 H46           -1.5158    -3.9804    -1.1019 H       
  47 H47           -0.1504    -2.8485    -0.9504 H       
  48 H48            4.2048     3.0568    -1.6724 H       
  49 H49            5.0874     0.0326    -3.8718 H       
  50 H50            5.2005     1.7962    -4.0846 H       
  51 H51            5.9911     1.0151    -2.6943 H       
  52 H52            0.1819     2.1232     0.3833 H       
  53 H53            3.5501     4.4778    -0.7940 H       
  54 H54            2.7860     6.3054     0.6655 H       
@<TRIPOS>BOND
   1    1    2 1
   2    1   14 2
   3    2    3 2
   4    2    4 am
   5    4    5 1
   6    4   30 1
   7    5    6 1
   8    5   11 1
   9    5   12 1
  10    6    7 1
  11    6   31 1
  12    6   32 1
  13    7    8 1
  14    7    9 1
  15    7   10 1
  16    8   33 1
  17    8   34 1
  18    8   35 1
  19    9   36 1
  20    9   37 1
  21    9   38 1
  22   10   39 1
  23   10   40 1
  24   10   41 1
  25   11   42 1
  26   11   43 1
  27   11   44 1
  28   12   45 1
  29   12   46 1
  30   12   47 1
  31   13   14 1
  32   13   17 1
  33   14   15 1
  34   15   16 1
  35   15   25 1
  36   16   17 2
  37   16   48 1
  38   17   18 1
  39   18   49 1
  40   18   50 1
  41   18   51 1
  42   19   20 1
  43   19   23 1
  44   20   21 1
  45   20   28 1
  46   20   29 1
  47   21   22 1
  48   22   23 ar
  49   22   24 ar
  50   23   27 ar
  51   24   25 ar
  52   24   52 1
  53   25   26 ar
  54   26   27 ar
  55   26   53 1
  56   27   54 1

#	End of record

