#	Name: ASD05430449
#	Creating user name:	WinNT
#	Creation time:	15. 06. 2019 21:00

#	Modifying user name:	WinNT
#	Modification time:	15. 06. 2019 21:00

#	Program:	/corina/corina34_cracker 3.40 0067  02.08.2006

@<TRIPOS>MOLECULE
ASD05430449
  58   62    0    0    0
SMALL
NO_CHARGES


@<TRIPOS>ATOM
   1 C1            -0.0826     0.7476     0.3536 C.ar    
   2 C2             0.0272    -0.3540    -0.4948 C.ar    
   3 C3            -1.0510    -0.7392    -1.2816 C.ar    
   4 C4            -2.2338    -0.0351    -1.2276 C.ar    
   5 C5            -2.3513     1.0709    -0.3791 C.ar    
   6 C6            -1.2678     1.4552     0.4172 C.ar    
   7 C7            -4.7905     1.1747    -0.4049 C.2     
   8 C8            -3.6140     1.8244    -0.3200 C.2     
   9 O9             0.9746     1.1217     1.1221 O.3     
  10 C10            1.3693    -2.4330    -0.4484 C.2     
  11 N11            1.2278    -1.0734    -0.5540 N.pl3   
  12 C12            2.6848    -2.6980    -0.5600 C.2     
  13 N13            3.3333    -1.5362    -0.7292 N.2     
  14 C14            2.4717    -0.5557    -0.7274 C.2     
  15 C15            3.3189    -4.0640    -0.5043 C.3     
  16 C16           -7.1222     0.1002     0.6359 C.2     
  17 N17           -7.1880     1.3130     0.0734 N.am    
  18 C18           -5.8730    -0.7323     0.7163 C.3     
  19 C19           -6.0785     1.8905    -0.5327 C.2     
  20 C20           -4.8809    -0.3412    -0.3823 C.3     
  21 C21            0.7916     2.2592     1.9676 C.3     
  22 O22           -8.1386    -0.3575     1.1131 O.2     
  23 C23           -8.4494     2.0691     0.1078 C.3     
  24 C24           -8.5889     2.8159    -1.2259 C.3     
  25 C25           -7.3826     3.7474    -1.3859 C.3     
  26 N26           -6.1429     3.0013    -1.1923 N.2     
  27 C27           -9.6074     1.1210     0.2847 C.ar    
  28 C28          -10.4572     1.2629     1.3659 C.ar    
  29 C29           -9.8224     0.1137    -0.6373 C.ar    
  30 C30          -10.8845    -0.7558    -0.4765 C.ar    
  31 C31          -11.7332    -0.6179     0.6087 C.ar    
  32 C32          -11.5197     0.3944     1.5289 C.ar    
  33 F33          -12.7718    -1.4673     0.7669 F       
  34 H34           -0.9616    -1.5926    -1.9374 H       
  35 H35           -3.0703    -0.3366    -1.8407 H       
  36 H36           -1.3544     2.3082     1.0739 H       
  37 H37           -3.5972     2.8985    -0.2086 H       
  38 H38            0.5780    -3.1528    -0.2996 H       
  39 H39            2.7080     0.4915    -0.8447 H       
  40 H40            3.3673    -4.4833    -1.5093 H       
  41 H41            4.3263    -3.9806    -0.0965 H       
  42 H42            2.7218    -4.7161     0.1331 H       
  43 H43           -5.4034    -0.5796     1.6880 H       
  44 H44           -6.1369    -1.7844     0.6090 H       
  45 H45           -5.2356    -0.7046    -1.3468 H       
  46 H46           -3.9014    -0.7665    -0.1639 H       
  47 H47           -0.0236     2.0662     2.6649 H       
  48 H48            1.7090     2.4490     2.5247 H       
  49 H49            0.5500     3.1299     1.3580 H       
  50 H50           -8.4284     2.7841     0.9302 H       
  51 H51           -8.6107     2.0996    -2.0473 H       
  52 H52           -9.5082     3.4015    -1.2244 H       
  53 H53           -7.3930     4.1842    -2.3845 H       
  54 H54           -7.4398     4.5438    -0.6439 H       
  55 H55          -10.2905     2.0526     2.0835 H       
  56 H56           -9.1603     0.0063    -1.4837 H       
  57 H57          -11.0527    -1.5423    -1.1974 H       
  58 H58          -12.1809     0.5027     2.3760 H       
@<TRIPOS>BOND
   1    1    2 ar
   2    1    9 1
   3    1    6 ar
   4    2    3 ar
   5    2   11 1
   6    3    4 ar
   7    3   34 1
   8    4    5 ar
   9    4   35 1
  10    5    6 ar
  11    5    8 1
  12    6   36 1
  13    7    8 2
  14    7   19 1
  15    7   20 1
  16    8   37 1
  17    9   21 1
  18   10   11 1
  19   10   12 2
  20   10   38 1
  21   11   14 1
  22   12   13 1
  23   12   15 1
  24   13   14 2
  25   14   39 1
  26   15   40 1
  27   15   41 1
  28   15   42 1
  29   16   17 am
  30   16   18 1
  31   16   22 2
  32   17   23 1
  33   17   19 1
  34   18   20 1
  35   18   43 1
  36   18   44 1
  37   19   26 2
  38   20   45 1
  39   20   46 1
  40   21   47 1
  41   21   48 1
  42   21   49 1
  43   23   24 1
  44   23   27 1
  45   23   50 1
  46   24   25 1
  47   24   51 1
  48   24   52 1
  49   25   26 1
  50   25   53 1
  51   25   54 1
  52   27   28 ar
  53   27   29 ar
  54   28   32 ar
  55   28   55 1
  56   29   30 ar
  57   29   56 1
  58   30   31 ar
  59   30   57 1
  60   31   32 ar
  61   31   33 1
  62   32   58 1

#	End of record

