#	Name: ASD05740116
#	Creating user name:	WinNT
#	Creation time:	15. 06. 2019 21:02

#	Modifying user name:	WinNT
#	Modification time:	15. 06. 2019 21:02

#	Program:	/corina/corina34_cracker 3.40 0067  02.08.2006

@<TRIPOS>MOLECULE
ASD05740116
  49   52    0    0    0
SMALL
NO_CHARGES


@<TRIPOS>ATOM
   1 C1            -0.0184     1.5028     0.0103 C.3     
   2 C2            -2.6481     1.2663    -2.1331 C.ar    
   3 C3             1.2820    -0.7399    -0.0142 C.2     
   4 C4             1.2323    -2.1974    -0.0208 C.2     
   5 C5             0.0021    -0.0041     0.0020 C.2     
   6 C6            -1.1528    -0.7105     0.0097 C.2     
   7 C7            -1.1312    -2.1174     0.0029 C.2     
   8 O8             0.0103    -2.8151    -0.0105 O.3     
   9 C9            -2.4729     0.0162     0.0262 C.3     
  10 C10           -2.9865     0.1571    -1.3836 C.ar    
  11 C11           -3.7965    -0.8245    -1.9250 C.ar    
  12 O12           -2.1888    -2.7212     0.0105 O.2     
  13 C13           -3.1220     1.3954    -3.4327 C.ar    
  14 C14           -3.9345     0.4073    -3.9737 C.ar    
  15 C15           -4.2694    -0.6994    -3.2182 C.ar    
  16 N16           -2.7817     2.5161    -4.1938 N.am    
  17 S17           -3.9429     3.3027    -5.0743 S.o2    
  18 O18           -3.2959     4.4027    -5.6995 O.2     
  19 O19           -4.6455     2.3011    -5.7971 O.2     
  20 C20            2.4587    -2.7504    -0.0360 C.2     
  21 S21            3.7040    -1.5185    -0.0426 S.3     
  22 C22            2.5639    -0.2564    -0.0301 C.2     
  23 O23            2.6998    -4.0890    -0.0446 O.3     
  24 C24            3.9892    -4.5027    -0.0598 C.ar    
  25 N25            4.2509    -5.8001    -0.0685 N.ar    
  26 N26            4.9569    -3.5998    -0.0711 N.ar    
  27 C27            6.2270    -3.9696    -0.0861 C.ar    
  28 C28            6.5375    -5.3204    -0.0899 C.ar    
  29 C29            5.4990    -6.2384    -0.0834 C.ar    
  30 N30           -5.0231     3.9464    -3.9968 N.am    
  31 C31           -4.5949     4.9958    -3.0686 C.3     
  32 H32            1.0042     1.8801     0.0026 H       
  33 H33           -0.5455     1.8639    -0.8728 H       
  34 H34           -0.5286     1.8543     0.9071 H       
  35 H35           -2.0195     2.0348    -1.7081 H       
  36 H36           -3.1914    -0.5490     0.6198 H       
  37 H37           -2.3378     1.0052     0.4642 H       
  38 H38           -4.0599    -1.6909    -1.3364 H       
  39 H39           -4.3040     0.5043    -4.9839 H       
  40 H40           -4.9012    -1.4681    -3.6382 H       
  41 H41           -1.8653     2.8337    -4.2065 H       
  42 H42            2.8182     0.7932    -0.0296 H       
  43 H43            7.0121    -3.2281    -0.0956 H       
  44 H44            7.5658    -5.6503    -0.1020 H       
  45 H45            5.7062    -7.2983    -0.0861 H       
  46 H46           -5.9394     3.6285    -3.9801 H       
  47 H47           -5.4362     5.2923    -2.4422 H       
  48 H48           -3.7889     4.6178    -2.4396 H       
  49 H49           -4.2409     5.8582    -3.6335 H       
@<TRIPOS>BOND
   1    1    5 1
   2    1   32 1
   3    1   33 1
   4    1   34 1
   5    2   10 ar
   6    2   13 ar
   7    2   35 1
   8    3    4 1
   9    3    5 1
  10    3   22 2
  11    4   20 2
  12    4    8 1
  13    5    6 2
  14    6    7 1
  15    6    9 1
  16    7    8 1
  17    7   12 2
  18    9   10 1
  19    9   36 1
  20    9   37 1
  21   10   11 ar
  22   11   15 ar
  23   11   38 1
  24   13   14 ar
  25   13   16 1
  26   14   15 ar
  27   14   39 1
  28   15   40 1
  29   16   17 am
  30   16   41 1
  31   17   18 2
  32   17   19 2
  33   17   30 am
  34   20   21 1
  35   20   23 1
  36   21   22 1
  37   22   42 1
  38   23   24 1
  39   24   25 ar
  40   24   26 ar
  41   25   29 ar
  42   26   27 ar
  43   27   28 ar
  44   27   43 1
  45   28   29 ar
  46   28   44 1
  47   29   45 1
  48   30   31 1
  49   30   46 1
  50   31   47 1
  51   31   48 1
  52   31   49 1

#	End of record

