#	Name: ASD01820190
#	Creating user name:	WinNT
#	Creation time:	15. 06. 2019 19:36

#	Modifying user name:	WinNT
#	Modification time:	15. 06. 2019 19:36

#	Program:	/corina/corina34_cracker 3.40 0067  02.08.2006

@<TRIPOS>MOLECULE
ASD01820190
 102  106    0    0    0
SMALL
NO_CHARGES


@<TRIPOS>ATOM
   1 N1             5.4327     1.8399     0.0464 N.am    
   2 C2             5.3929     0.5039     0.2101 C.2     
   3 C3             6.3209     2.3992    -0.9756 C.3     
   4 C4             5.5672     2.5066    -2.3028 C.3     
   5 C5             6.4948     3.0906    -3.3702 C.3     
   6 N6             6.0688     2.6253    -4.6969 N.4     
   7 C7             6.8354     3.3306    -5.7326 C.3     
   8 C8             6.3917     2.8459    -7.1144 C.3     
   9 C9             7.1901     3.5805    -8.1931 C.3     
  10 C10            6.7464     3.0959    -9.5749 C.3     
  11 C11            7.5449     3.8305   -10.6536 C.3     
  12 C12            7.1012     3.3459   -12.0354 C.3     
  13 N13            7.8678     4.0512   -13.0711 N.4     
  14 C14            7.4418     3.5859   -14.3978 C.3     
  15 C15            8.5027     3.9606   -15.4346 C.3     
  16 N16            8.9135     4.2333   -17.8301 N.am    
  17 O17            6.0880    -0.2115    -0.4856 O.2     
  18 C18            7.8977     3.8744   -16.8373 C.3     
  19 C19            9.7503     3.3566   -18.4138 C.2     
  20 C20           10.6235     4.0923   -19.3525 C.ar    
  21 C21           10.2307     5.4435   -19.2661 C.ar    
  22 C22            9.1283     5.4819   -18.2821 C.2     
  23 C23           11.6486     3.7263   -20.2095 C.ar    
  24 C24           12.2812     4.6927   -20.9766 C.ar    
  25 C25           11.8961     6.0171   -20.8919 C.ar    
  26 C26           10.8720     6.3982   -20.0383 C.ar    
  27 O27            9.7832     2.1607   -18.2044 O.2     
  28 O28            8.5231     6.4757   -17.9340 O.2     
  29 C29            7.6283     5.4962   -12.9589 C.3     
  30 C30            9.2998     3.7768   -12.8925 C.3     
  31 C31            6.3082     1.1803    -4.8091 C.3     
  32 C32            4.6367     2.8996    -4.8755 C.3     
  33 C33            4.5140    -0.0946     1.2256 C.ar    
  34 C34            3.7167     0.7594     2.0212 C.ar    
  35 C35            3.7832     2.1574     1.8227 C.ar    
  36 C36            4.6824     2.6806     0.7837 C.2     
  37 O37            4.7559     3.8798     0.5954 O.2     
  38 C38            4.4421    -1.4648     1.4281 C.ar    
  39 C39            3.5954    -1.9832     2.4011 C.ar    
  40 C40            2.8183    -1.1734     3.1785 C.ar    
  41 C41            2.8614     0.2211     3.0047 C.ar    
  42 C42            2.0810     1.0968     3.7799 C.ar    
  43 C43            2.1571     2.4442     3.5738 C.ar    
  44 C44            2.9971     2.9871     2.6083 C.ar    
  45 C45            8.9875     5.3884   -15.1751 C.3     
  46 C46            9.6837     2.9937   -15.3283 C.3     
  47 C47            5.1004     1.1161    -2.7382 C.3     
  48 C48            4.3527     3.4204    -2.1271 C.3     
  49 H49            6.6534     3.3898    -0.6655 H       
  50 H50            7.1861     1.7481    -1.1008 H       
  51 H51            6.4492     4.1791    -3.3351 H       
  52 H52            7.5172     2.7635    -3.1815 H       
  53 H53            6.6577     4.4028    -5.6493 H       
  54 H54            7.8980     3.1270    -5.6001 H       
  55 H55            6.5694     1.7738    -7.1977 H       
  56 H56            5.3291     3.0495    -7.2469 H       
  57 H57            7.0124     4.6527    -8.1098 H       
  58 H58            8.2527     3.3770    -8.0606 H       
  59 H59            6.9241     2.0237    -9.6582 H       
  60 H60            5.6838     3.2995    -9.7074 H       
  61 H61            7.3672     4.9027   -10.5703 H       
  62 H62            8.6074     3.6269   -10.5211 H       
  63 H63            7.2789     2.2737   -12.1187 H       
  64 H64            6.0386     3.5494   -12.1679 H       
  65 H65            7.3173     2.5031   -14.3803 H       
  66 H66            6.4944     4.0563   -14.6609 H       
  67 H67            7.5523     2.8573   -17.0222 H       
  68 H68            7.0564     4.5632   -16.9131 H       
  69 H69           11.9539     2.6928   -20.2795 H       
  70 H70           13.0806     4.4084   -21.6447 H       
  71 H71           12.3965     6.7606   -21.4945 H       
  72 H72           10.5753     7.4347   -19.9762 H       
  73 H73            8.0433     5.8613   -12.0194 H       
  74 H74            8.1081     6.0098   -13.7920 H       
  75 H75            6.5559     5.6896   -12.9819 H       
  76 H76            9.4780     2.7050   -12.9793 H       
  77 H77            9.8689     4.3030   -13.6590 H       
  78 H78            9.6151     4.1189   -11.9068 H       
  79 H79            5.4502     0.6379    -4.4122 H       
  80 H80            6.4520     0.9161    -5.8568 H       
  81 H81            7.2002     0.9146    -4.2417 H       
  82 H82            4.3649     3.7926    -4.3126 H       
  83 H83            4.4264     3.0587    -5.9331 H       
  84 H84            4.0563     2.0511    -4.5132 H       
  85 H85            5.0450    -2.1304     0.8283 H       
  86 H86            3.5509    -3.0526     2.5454 H       
  87 H87            2.1697    -1.6043     3.9269 H       
  88 H88            1.4207     0.7033     4.5386 H       
  89 H89            1.5511     3.1045     4.1765 H       
  90 H90            3.0362     4.0573     2.4684 H       
  91 H91            9.3107     5.4795   -14.1381 H       
  92 H92            9.8232     5.6143   -15.8374 H       
  93 H93            8.1739     6.0885   -15.3649 H       
  94 H94            9.3262     1.9700   -15.4393 H       
  95 H95           10.4054     3.2139   -16.1148 H       
  96 H96           10.1607     3.1085   -14.3549 H       
  97 H97            4.5221     0.6590    -1.9353 H       
  98 H98            4.4787     1.2040    -3.6292 H       
  99 H99            5.9679     0.4946    -2.9603 H       
 100 H100           4.6893     4.4351    -1.9146 H       
 101 H101           3.7609     3.4181    -3.0424 H       
 102 H102           3.7428     3.0590    -1.2992 H       
@<TRIPOS>BOND
   1    1    2 am
   2    1    3 1
   3    1   36 am
   4    2   17 2
   5    2   33 1
   6    3    4 1
   7    3   49 1
   8    3   50 1
   9    4    5 1
  10    4   47 1
  11    4   48 1
  12    5    6 1
  13    5   51 1
  14    5   52 1
  15    6    7 1
  16    6   31 1
  17    6   32 1
  18    7    8 1
  19    7   53 1
  20    7   54 1
  21    8    9 1
  22    8   55 1
  23    8   56 1
  24    9   10 1
  25    9   57 1
  26    9   58 1
  27   10   11 1
  28   10   59 1
  29   10   60 1
  30   11   12 1
  31   11   61 1
  32   11   62 1
  33   12   13 1
  34   12   63 1
  35   12   64 1
  36   13   14 1
  37   13   29 1
  38   13   30 1
  39   14   15 1
  40   14   65 1
  41   14   66 1
  42   15   18 1
  43   15   45 1
  44   15   46 1
  45   16   19 am
  46   16   18 1
  47   16   22 am
  48   18   67 1
  49   18   68 1
  50   19   20 1
  51   19   27 2
  52   20   21 ar
  53   20   23 ar
  54   21   22 1
  55   21   26 ar
  56   22   28 2
  57   23   24 ar
  58   23   69 1
  59   24   25 ar
  60   24   70 1
  61   25   26 ar
  62   25   71 1
  63   26   72 1
  64   29   73 1
  65   29   74 1
  66   29   75 1
  67   30   76 1
  68   30   77 1
  69   30   78 1
  70   31   79 1
  71   31   80 1
  72   31   81 1
  73   32   82 1
  74   32   83 1
  75   32   84 1
  76   33   34 ar
  77   33   38 ar
  78   34   35 ar
  79   34   41 ar
  80   35   36 1
  81   35   44 ar
  82   36   37 2
  83   38   39 ar
  84   38   85 1
  85   39   40 ar
  86   39   86 1
  87   40   41 ar
  88   40   87 1
  89   41   42 ar
  90   42   43 ar
  91   42   88 1
  92   43   44 ar
  93   43   89 1
  94   44   90 1
  95   45   91 1
  96   45   92 1
  97   45   93 1
  98   46   94 1
  99   46   95 1
 100   46   96 1
 101   47   97 1
 102   47   98 1
 103   47   99 1
 104   48  100 1
 105   48  101 1
 106   48  102 1

#	End of record

