#	Name: ASD01870237
#	Creating user name:	WinNT
#	Creation time:	15. 06. 2019 19:38

#	Modifying user name:	WinNT
#	Modification time:	15. 06. 2019 19:38

#	Program:	/corina/corina34_cracker 3.40 0067  02.08.2006

@<TRIPOS>MOLECULE
ASD01870237
  53   57    0    0    0
SMALL
NO_CHARGES


@<TRIPOS>ATOM
   1 C1             0.6192     0.9505    -2.1355 C.ar    
   2 C2             0.4813    -0.3340    -1.6153 C.ar    
   3 C3             1.3924    -0.8385    -0.7357 C.ar    
   4 C4             2.4868    -0.0542    -0.3472 C.ar    
   5 C5             2.6278     1.2564    -0.8785 C.ar    
   6 C6             1.6704     1.7421    -1.7807 C.ar    
   7 C7             3.4583    -0.5227     0.5567 C.ar    
   8 N8             4.4674     0.2349     0.8984 N.ar    
   9 C9             4.6392     1.4757     0.4222 C.ar    
  10 C10            3.7317     2.0170    -0.4727 C.ar    
  11 C11            5.6928     2.4829     0.6743 C.2     
  12 N12            5.4506     3.5999    -0.0323 N.am    
  13 C13            4.2161     3.4052    -0.8016 C.3     
  14 C14            6.2785     4.8085    -0.0336 C.3     
  15 C15            7.1522     4.8292    -1.2916 C.3     
  16 C16            6.2485     4.8963    -2.5265 C.3     
  17 C17            5.3484     6.1305    -2.4240 C.3     
  18 O18            4.5860     6.0634    -1.2172 O.3     
  19 C19            5.3772     6.0460    -0.0274 C.3     
  20 C20            3.3341    -1.9084     1.1358 C.3     
  21 C21            4.0498    -2.8911     0.2452 C.ar    
  22 C22            5.4089    -3.0948     0.3928 C.ar    
  23 C23            6.0655    -3.9962    -0.4243 C.ar    
  24 C24            5.3629    -4.6941    -1.3884 C.ar    
  25 C25            4.0032    -4.4910    -1.5355 C.ar    
  26 C26            3.3460    -3.5930    -0.7158 C.ar    
  27 O27            6.6428     2.3228     1.4154 O.2     
  28 O28            7.9443     3.6409    -1.3430 O.3     
  29 C29            6.1750    -2.3339     1.4441 C.3     
  30 H30           -0.1154     1.3233    -2.8339 H       
  31 H31           -0.3614    -0.9402    -1.9134 H       
  32 H32            1.2714    -1.8362    -0.3404 H       
  33 H33            1.7658     2.7361    -2.1921 H       
  34 H34            4.4226     3.4871    -1.8688 H       
  35 H35            3.4699     4.1425    -0.5059 H       
  36 H36            6.9143     4.8154     0.8517 H       
  37 H37            7.8039     5.7026    -1.2687 H       
  38 H38            6.8629     4.9672    -3.4241 H       
  39 H39            5.6319     3.9989    -2.5759 H       
  40 H40            5.9642     7.0298    -2.4154 H       
  41 H41            4.6733     6.1601    -3.2793 H       
  42 H42            4.7229     6.0148     0.8438 H       
  43 H43            5.9934     6.9443     0.0125 H       
  44 H44            3.7798    -1.9279     2.1303 H       
  45 H45            2.2808    -2.1805     1.2043 H       
  46 H46            7.1276    -4.1548    -0.3094 H       
  47 H47            5.8760    -5.3977    -2.0272 H       
  48 H48            3.4542    -5.0360    -2.2891 H       
  49 H49            2.2839    -3.4344    -0.8306 H       
  50 H50            8.5232     3.5872    -2.1157 H       
  51 H51            6.1737    -2.9000     2.3756 H       
  52 H52            7.2020    -2.1865     1.1098 H       
  53 H53            5.7034    -1.3648     1.6072 H       
@<TRIPOS>BOND
   1    1    2 ar
   2    1    6 ar
   3    1   30 1
   4    2    3 ar
   5    2   31 1
   6    3    4 ar
   7    3   32 1
   8    4    5 ar
   9    4    7 ar
  10    5    6 ar
  11    5   10 ar
  12    6   33 1
  13    7    8 ar
  14    7   20 1
  15    8    9 ar
  16    9   10 ar
  17    9   11 1
  18   10   13 1
  19   11   12 am
  20   11   27 2
  21   12   13 1
  22   12   14 1
  23   13   34 1
  24   13   35 1
  25   14   15 1
  26   14   19 1
  27   14   36 1
  28   15   16 1
  29   15   28 1
  30   15   37 1
  31   16   17 1
  32   16   38 1
  33   16   39 1
  34   17   18 1
  35   17   40 1
  36   17   41 1
  37   18   19 1
  38   19   42 1
  39   19   43 1
  40   20   21 1
  41   20   44 1
  42   20   45 1
  43   21   22 ar
  44   21   26 ar
  45   22   23 ar
  46   22   29 1
  47   23   24 ar
  48   23   46 1
  49   24   25 ar
  50   24   47 1
  51   25   26 ar
  52   25   48 1
  53   26   49 1
  54   28   50 1
  55   29   51 1
  56   29   52 1
  57   29   53 1

#	End of record

