#	Name: ASD04670001
#	Creating user name:	WinNT
#	Creation time:	15. 06. 2019 20:52

#	Modifying user name:	WinNT
#	Modification time:	15. 06. 2019 20:52

#	Program:	/corina/corina34_cracker 3.40 0067  02.08.2006

@<TRIPOS>MOLECULE
ASD04670001
  55   57    0    0    0
SMALL
NO_CHARGES


@<TRIPOS>ATOM
   1 C1            -0.0178     1.4597     0.0101 C.ar    
   2 C2             0.0021    -0.0041     0.0020 C.ar    
   3 C3            -1.2420    -0.6829     0.0108 C.ar    
   4 N4            -2.3678     0.0414     0.0258 N.ar    
   5 C5            -2.3294     1.3591     0.0325 C.ar    
   6 N6            -1.1998     2.0598     0.0302 N.ar    
   7 N7            -3.5269     2.0484     0.0481 N.pl3   
   8 N8             1.1514     2.1884     0.0028 N.pl3   
   9 N9             1.1375    -0.6949    -0.0134 N.ar    
  10 C10            1.0963    -2.0103    -0.0205 C.ar    
  11 C11           -0.1251    -2.6832    -0.0124 C.ar    
  12 N12           -1.2606    -2.0180     0.0043 N.ar    
  13 C13            2.3816    -2.7970    -0.0380 C.3     
  14 N14            2.8469    -2.9414    -1.4196 N.pl3   
  15 C15            3.7406    -1.9363    -2.0004 C.3     
  16 C16            2.4404    -4.0325    -2.1796 C.ar    
  17 C17            2.8835    -4.1683    -3.4924 C.ar    
  18 C18            2.4827    -5.2468    -4.2473 C.ar    
  19 C19            1.6300    -6.2068    -3.6945 C.ar    
  20 C20            1.1872    -6.0678    -2.3758 C.ar    
  21 C21            1.5958    -4.9898    -1.6244 C.ar    
  22 C22            1.1979    -7.3639    -4.5012 C.2     
  23 O23            1.5835    -7.4834    -5.6482 O.2     
  24 N24            0.3758    -8.2886    -3.9668 N.am    
  25 C25           -0.0532    -9.4377    -4.7679 C.3     
  26 C26           -0.4194   -10.5979    -3.8402 C.3     
  27 C27            0.8309   -11.0686    -3.0944 C.3     
  28 C28            0.4702   -12.2115    -2.1806 C.2     
  29 O29           -0.6698   -12.6087    -2.1310 O.2     
  30 O30            1.4155   -12.7881    -1.4219 O.3     
  31 C31           -1.2555    -9.0547    -5.5920 C.2     
  32 O32           -1.7075    -7.9367    -5.5177 O.2     
  33 O33           -1.8241    -9.9557    -6.4084 O.3     
  34 H34           -4.3663     1.5623     0.0538 H       
  35 H35           -3.5282     3.0184     0.0533 H       
  36 H36            2.0072     1.7320    -0.0078 H       
  37 H37            1.1187     3.1578     0.0083 H       
  38 H38           -0.1393    -3.7631    -0.0190 H       
  39 H39            3.1369    -2.2720     0.5468 H       
  40 H40            2.2096    -3.7835     0.3925 H       
  41 H41            4.7764    -2.2202    -1.8144 H       
  42 H42            3.5681    -1.8743    -3.0749 H       
  43 H43            3.5421    -0.9665    -1.5440 H       
  44 H44            3.5423    -3.4264    -3.9189 H       
  45 H45            2.8262    -5.3513    -5.2659 H       
  46 H46            0.5283    -6.8078    -1.9460 H       
  47 H47            1.2543    -4.8820    -0.6055 H       
  48 H48            0.0682    -8.1933    -3.0518 H       
  49 H49            0.7580    -9.7430    -5.4289 H       
  50 H50           -1.1680   -10.2657    -3.1210 H       
  51 H51           -0.8223   -11.4214    -4.4299 H       
  52 H52            1.5795   -11.4009    -3.8136 H       
  53 H53            1.2338   -10.2452    -2.5047 H       
  54 H54            1.1363   -13.5175    -0.8517 H       
  55 H55           -2.5930    -9.6637    -6.9169 H       
@<TRIPOS>BOND
   1    1    2 ar
   2    1    8 1
   3    1    6 ar
   4    2    3 ar
   5    2    9 ar
   6    3    4 ar
   7    3   12 ar
   8    4    5 ar
   9    5    6 ar
  10    5    7 1
  11    7   34 1
  12    7   35 1
  13    8   36 1
  14    8   37 1
  15    9   10 ar
  16   10   11 ar
  17   10   13 1
  18   11   12 ar
  19   11   38 1
  20   13   14 1
  21   13   39 1
  22   13   40 1
  23   14   15 1
  24   14   16 1
  25   15   41 1
  26   15   42 1
  27   15   43 1
  28   16   17 ar
  29   16   21 ar
  30   17   18 ar
  31   17   44 1
  32   18   19 ar
  33   18   45 1
  34   19   20 ar
  35   19   22 1
  36   20   21 ar
  37   20   46 1
  38   21   47 1
  39   22   23 2
  40   22   24 am
  41   24   25 1
  42   24   48 1
  43   25   26 1
  44   25   31 1
  45   25   49 1
  46   26   27 1
  47   26   50 1
  48   26   51 1
  49   27   28 1
  50   27   52 1
  51   27   53 1
  52   28   29 2
  53   28   30 1
  54   30   54 1
  55   31   32 2
  56   31   33 1
  57   33   55 1

#	End of record

