#	Name: ASD00310313
#	Creating user name:	WinNT
#	Creation time:	15. 06. 2019 18:34

#	Modifying user name:	WinNT
#	Modification time:	15. 06. 2019 18:34

#	Program:	/corina/corina34_cracker 3.40 0067  02.08.2006

@<TRIPOS>MOLECULE
ASD00310313
  36   38    0    0    0
SMALL
NO_CHARGES


@<TRIPOS>ATOM
   1 N1            -0.0162     1.3425     0.0094 N.pl3   
   2 C2             0.0021    -0.0041     0.0020 C.2     
   3 C3             1.3065    -0.4496    -0.0128 C.2     
   4 C4             2.1541     0.7597    -0.0144 C.ar    
   5 C5             3.5276     0.9734    -0.0268 C.ar    
   6 C6             4.0198     2.2726    -0.0249 C.ar    
   7 C7             3.1346     3.3559    -0.0106 C.ar    
   8 C8             1.7745     3.1459     0.0016 C.ar    
   9 C9             1.2678     1.8487    -0.0001 C.ar    
  10 C10            1.7457    -1.7969    -0.0238 C.2     
  11 O11            0.9342    -2.6999    -0.0210 O.2     
  12 C12            5.4840     2.5113    -0.0376 C.ar    
  13 C13            6.0398     3.3937    -0.9628 C.ar    
  14 C14            7.4028     3.6134    -0.9718 C.ar    
  15 C15            8.2197     2.9549    -0.0595 C.ar    
  16 C16            7.6679     2.0767     0.8615 C.ar    
  17 C17            6.3055     1.8581     0.8790 C.ar    
  18 O18            9.5616     3.1719    -0.0705 O.3     
  19 C19           10.3414     2.4625     0.8942 C.3     
  20 C20           11.8168     2.8325     0.7292 C.3     
  21 O21           11.9986     4.2156     1.0393 O.3     
  22 F22            7.9430     4.4682    -1.8676 F       
  23 Cl23           3.7563     4.9767    -0.0078 Cl      
  24 H24           -0.8217     1.8829     0.0163 H       
  25 H25           -0.8721    -0.6383     0.0075 H       
  26 H26            4.2079     0.1347    -0.0374 H       
  27 H27            1.0990     3.9885     0.0129 H       
  28 H28            2.8022    -2.0203    -0.0348 H       
  29 H29            5.4050     3.9045    -1.6717 H       
  30 H30            8.3050     1.5666     1.5689 H       
  31 H31            5.8767     1.1777     1.5998 H       
  32 H32           10.0097     2.7302     1.8974 H       
  33 H33           10.2169     1.3900     0.7445 H       
  34 H34           12.4211     2.2264     1.4042 H       
  35 H35           12.1250     2.6474    -0.2998 H       
  36 H36           12.9124     4.5206     0.9559 H       
@<TRIPOS>BOND
   1    1    2 1
   2    1    9 1
   3    1   24 1
   4    2    3 2
   5    2   25 1
   6    3    4 1
   7    3   10 1
   8    4    5 ar
   9    4    9 ar
  10    5    6 ar
  11    5   26 1
  12    6    7 ar
  13    6   12 1
  14    7    8 ar
  15    7   23 1
  16    8    9 ar
  17    8   27 1
  18   10   11 2
  19   10   28 1
  20   12   13 ar
  21   12   17 ar
  22   13   14 ar
  23   13   29 1
  24   14   15 ar
  25   14   22 1
  26   15   16 ar
  27   15   18 1
  28   16   17 ar
  29   16   30 1
  30   17   31 1
  31   18   19 1
  32   19   20 1
  33   19   32 1
  34   19   33 1
  35   20   21 1
  36   20   34 1
  37   20   35 1
  38   21   36 1

#	End of record

