#	Name: ASD01812804
#	Creating user name:	WinNT
#	Creation time:	15. 06. 2019 19:29

#	Modifying user name:	WinNT
#	Modification time:	15. 06. 2019 19:29

#	Program:	/corina/corina34_cracker 3.40 0067  02.08.2006

@<TRIPOS>MOLECULE
ASD01812804
  54   58    0    0    0
SMALL
NO_CHARGES


@<TRIPOS>ATOM
   1 N1            -0.0158     1.3147     0.0093 N.ar    
   2 C2             0.0021    -0.0041     0.0020 C.ar    
   3 C3             1.1989    -0.7033    -0.0127 C.ar    
   4 C4             2.3829    -0.0013    -0.0202 C.ar    
   5 C5             2.3448     1.3978    -0.0128 C.ar    
   6 C6             1.0955     2.0332     0.0025 C.ar    
   7 C7             3.8373    -0.3889    -0.0363 C.3     
   8 N8             4.5955     0.8684    -0.0373 N.am    
   9 C9             3.7280     1.8961    -0.0237 C.2     
  10 C10            6.0558     0.9844    -0.0504 C.3     
  11 C11            6.5432     1.0311    -1.4757 C.ar    
  12 C12            6.6715     2.2493    -2.1220 C.ar    
  13 C13            7.1179     2.2966    -3.4297 C.ar    
  14 C14            7.4392     1.1169    -4.0970 C.ar    
  15 C15            7.3091    -0.1061    -3.4430 C.ar    
  16 C16            6.8669    -0.1439    -2.1335 C.ar    
  17 O17            1.0255     3.3856     0.0100 O.3     
  18 O18            4.0429     3.0706    -0.0212 O.2     
  19 F19            6.3597     3.3929    -1.4739 F       
  20 N20            8.0841     2.2477    -6.2276 N.2     
  21 C21            7.9184     1.1627    -5.5011 C.2     
  22 C22            8.2764     0.0531    -6.2911 C.2     
  23 C23            8.6576     0.5131    -7.5026 C.2     
  24 N24            8.5489     1.8591    -7.4905 N.pl3   
  25 C25            8.8627     2.7569    -8.6048 C.3     
  26 C26           -0.2795     3.9677     0.0251 C.3     
  27 C27           -0.2695     5.3342    -0.6907 C.3     
  28 C28           -1.2157     6.2527     0.1023 C.3     
  29 C29           -1.7677     5.4123     1.2723 C.3     
  30 C30           -0.7072     4.3019     1.4758 C.3     
  31 O31           -0.7398     5.1876    -2.0320 O.3     
  32 F32            6.7456    -1.3291    -1.4965 F       
  33 H33           -0.9309    -0.5480     0.0080 H       
  34 H34            1.2023    -1.7833    -0.0178 H       
  35 H35            4.0797    -0.9721     0.8522 H       
  36 H36            4.0624    -0.9631    -0.9351 H       
  37 H37            6.3524     1.8979     0.4651 H       
  38 H38            6.4932     0.1235     0.4552 H       
  39 H39            7.2170     3.2469    -3.9332 H       
  40 H40            7.5568    -1.0232    -3.9568 H       
  41 H41            8.2507    -0.9817    -5.9830 H       
  42 H42            8.9912    -0.0895    -8.3345 H       
  43 H43            9.9097     3.0545    -8.5479 H       
  44 H44            8.6821     2.2419    -9.5483 H       
  45 H45            8.2296     3.6424    -8.5472 H       
  46 H46           -1.0006     3.2973    -0.4425 H       
  47 H47            0.7389     5.7480    -0.6912 H       
  48 H48           -0.6665     7.1123     0.4865 H       
  49 H49           -2.0337     6.5866    -0.5361 H       
  50 H50           -1.8584     6.0225     2.1708 H       
  51 H51           -2.7308     4.9760     1.0075 H       
  52 H52           -1.1485     3.4301     1.9589 H       
  53 H53            0.1391     4.6768     2.0514 H       
  54 H54           -0.7572     6.0132    -2.5352 H       
@<TRIPOS>BOND
   1    1    2 ar
   2    1    6 ar
   3    2    3 ar
   4    2   33 1
   5    3    4 ar
   6    3   34 1
   7    4    7 1
   8    4    5 ar
   9    5    6 ar
  10    5    9 1
  11    6   17 1
  12    7    8 1
  13    7   35 1
  14    7   36 1
  15    8    9 am
  16    8   10 1
  17    9   18 2
  18   10   11 1
  19   10   37 1
  20   10   38 1
  21   11   12 ar
  22   11   16 ar
  23   12   13 ar
  24   12   19 1
  25   13   14 ar
  26   13   39 1
  27   14   15 ar
  28   14   21 1
  29   15   16 ar
  30   15   40 1
  31   16   32 1
  32   17   26 1
  33   20   21 2
  34   20   24 1
  35   21   22 1
  36   22   23 2
  37   22   41 1
  38   23   24 1
  39   23   42 1
  40   24   25 1
  41   25   43 1
  42   25   44 1
  43   25   45 1
  44   26   27 1
  45   26   30 1
  46   26   46 1
  47   27   28 1
  48   27   31 1
  49   27   47 1
  50   28   29 1
  51   28   48 1
  52   28   49 1
  53   29   30 1
  54   29   50 1
  55   29   51 1
  56   30   52 1
  57   30   53 1
  58   31   54 1

#	End of record

