#	Name: ASD00069394
#	Creating user name:	WinNT
#	Creation time:	15. 06. 2019 18:29

#	Modifying user name:	WinNT
#	Modification time:	15. 06. 2019 18:29

#	Program:	/corina/corina34_cracker 3.40 0067  02.08.2006

@<TRIPOS>MOLECULE
ASD00069394
  47   48    0    0    0
SMALL
NO_CHARGES


@<TRIPOS>ATOM
   1 C1             0.0995     1.2977     0.0699 C.ar    
   2 C2             0.0606    -0.0964     0.0239 C.ar    
   3 N3             1.2046    -0.7733    -0.0117 N.ar    
   4 C4             2.3661    -0.1371    -0.0037 C.ar    
   5 N5             2.4343     1.1854     0.0396 N.ar    
   6 C6             1.3332     1.9233     0.0768 C.ar    
   7 Cl7            1.4389     3.6552     0.1328 Cl      
   8 N8            -1.1525    -0.7657     0.0158 N.3     
   9 C9            -1.9967    -0.3119    -1.0975 C.3     
  10 C10           -0.9510    -2.2202    -0.0268 C.3     
  11 C11           -2.3005    -2.9248     0.1480 C.3     
  12 C12           -3.3890    -0.9383    -0.9666 C.3     
  13 C13           -2.1241    -4.4309    -0.0554 C.3     
  14 N14           -3.2366    -2.3970    -0.8562 N.am    
  15 O15           -4.8627    -2.7319    -2.4955 O.3     
  16 C16           -5.5774    -3.6853    -3.3253 C.3     
  17 C17           -6.3225    -4.6801    -2.4331 C.3     
  18 C18           -6.5811    -2.9411    -4.2083 C.3     
  19 C19           -4.5817    -4.4393    -4.2090 C.3     
  20 C20           -3.9359    -3.2280    -1.6543 C.2     
  21 O21           -3.7299    -4.4248    -1.6146 O.2     
  22 N22            3.5381    -0.8721    -0.0410 N.pl3   
  23 C23            4.8330    -0.1870    -0.0329 C.3     
  24 H24           -0.8128     1.8752     0.0951 H       
  25 H25           -2.0824     0.7744    -1.0696 H       
  26 H26           -1.5477    -0.6176    -2.0425 H       
  27 H27           -0.5166    -2.4993    -0.9867 H       
  28 H28           -0.2784    -2.5179     0.7776 H       
  29 H29           -2.6866    -2.7333     1.1491 H       
  30 H30           -3.8814    -0.5530    -0.0738 H       
  31 H31           -3.9830    -0.6979    -1.8484 H       
  32 H32           -1.3480    -4.7997     0.6153 H       
  33 H33           -3.0635    -4.9394     0.1616 H       
  34 H34           -1.8350    -4.6268    -1.0879 H       
  35 H35           -7.0319    -4.1429    -1.8035 H       
  36 H36           -6.8590    -5.3958    -3.0560 H       
  37 H37           -5.6074    -5.2103    -1.8040 H       
  38 H38           -6.0503    -2.2324    -4.8440 H       
  39 H39           -7.1176    -3.6568    -4.8312 H       
  40 H40           -7.2905    -2.4039    -3.5788 H       
  41 H41           -3.8666    -4.9695    -3.5800 H       
  42 H42           -5.1182    -5.1550    -4.8319 H       
  43 H43           -4.0508    -3.7306    -4.8447 H       
  44 H44            3.5022    -1.8410    -0.0726 H       
  45 H45            5.6346    -0.9248    -0.0662 H       
  46 H46            4.9039     0.4661    -0.9026 H       
  47 H47            4.9238     0.4074     0.8762 H       
@<TRIPOS>BOND
   1    1    2 ar
   2    1    6 ar
   3    1   24 1
   4    2    3 ar
   5    2    8 1
   6    3    4 ar
   7    4    5 ar
   8    4   22 1
   9    5    6 ar
  10    6    7 1
  11    8    9 1
  12    8   10 1
  13    9   12 1
  14    9   25 1
  15    9   26 1
  16   10   11 1
  17   10   27 1
  18   10   28 1
  19   11   13 1
  20   11   14 1
  21   11   29 1
  22   12   14 1
  23   12   30 1
  24   12   31 1
  25   13   32 1
  26   13   33 1
  27   13   34 1
  28   14   20 am
  29   15   16 1
  30   15   20 1
  31   16   17 1
  32   16   18 1
  33   16   19 1
  34   17   35 1
  35   17   36 1
  36   17   37 1
  37   18   38 1
  38   18   39 1
  39   18   40 1
  40   19   41 1
  41   19   42 1
  42   19   43 1
  43   20   21 2
  44   22   23 1
  45   22   44 1
  46   23   45 1
  47   23   46 1
  48   23   47 1

#	End of record

