#	Name: ASD05380099
#	Creating user name:	WinNT
#	Creation time:	15. 06. 2019 20:59

#	Modifying user name:	WinNT
#	Modification time:	15. 06. 2019 20:59

#	Program:	/corina/corina34_cracker 3.40 0067  02.08.2006

@<TRIPOS>MOLECULE
ASD05380099
  46   50    0    0    0
SMALL
NO_CHARGES


@<TRIPOS>ATOM
   1 C1            -0.2265     1.5762    -0.3889 C.ar    
   2 C2            -0.0888     0.1888    -0.6182 C.ar    
   3 C3             0.7587     2.4574    -0.8291 C.ar    
   4 C4             1.8646     1.9655    -1.4877 C.ar    
   5 C5             2.0031     0.6027    -1.7148 C.ar    
   6 C6             1.0408    -0.2851    -1.2878 C.ar    
   7 N7            -1.0604    -0.6504    -0.1801 N.2     
   8 C8            -2.1107    -0.2095     0.4430 C.2     
   9 N9            -2.3255     1.1079     0.7067 N.am    
  10 C10           -1.4244     2.0426     0.3243 C.2     
  11 C11           -3.4868     1.4997     1.3845 C.ar    
  12 C12           -4.6413     1.7957     0.6723 C.ar    
  13 C13           -3.4871     1.5872     2.7703 C.ar    
  14 C14           -5.7810     2.2729     2.7272 C.ar    
  15 C15           -3.1445    -1.2076     0.8969 C.3     
  16 N16           -3.2460    -2.2876    -0.0878 N.pl3   
  17 C17           -4.4161    -3.0187    -0.1948 C.ar    
  18 N18           -5.4573    -2.7541     0.5879 N.ar    
  19 O19           -1.6036     3.2246     0.5536 O.2     
  20 C20           -4.5332    -4.0541    -1.1374 C.ar    
  21 C21           -5.7461    -4.7611    -1.1991 C.ar    
  22 N22           -6.7306    -4.4281    -0.3709 N.ar    
  23 C23           -6.5776    -3.4465     0.4928 C.ar    
  24 N24           -3.7127    -4.5863    -2.0748 N.2     
  25 C25           -4.3296    -5.5513    -2.6929 C.2     
  26 N26           -5.5876    -5.6982    -2.1886 N.pl3   
  27 C27           -5.7866     2.1818     1.3449 C.ar    
  28 C28           -4.6336     1.9734     3.4373 C.ar    
  29 C29           -2.7324    -1.7889     2.2508 C.3     
  30 F30           -6.9093     2.4756     0.6532 F       
  31 H31            0.6562     3.5185    -0.6556 H       
  32 H32            2.6300     2.6458    -1.8307 H       
  33 H33            2.8763     0.2344    -2.2326 H       
  34 H34            1.1595    -1.3429    -1.4702 H       
  35 H35           -4.6450     1.7248    -0.4054 H       
  36 H36           -2.5915     1.3532     3.3265 H       
  37 H37           -6.6760     2.5746     3.2511 H       
  38 H38           -4.1105    -0.7118     0.9932 H       
  39 H39           -2.4930    -2.4902    -0.6647 H       
  40 H40           -7.3991    -3.1985     1.1486 H       
  41 H41           -3.9072    -6.1478    -3.4880 H       
  42 H42           -6.2491    -6.3467    -2.4762 H       
  43 H43           -4.6334     2.0413     4.5152 H       
  44 H44           -2.5657    -0.9773     2.9591 H       
  45 H45           -3.5239    -2.4393     2.6231 H       
  46 H46           -1.8139    -2.3642     2.1348 H       
@<TRIPOS>BOND
   1    1    2 ar
   2    1    3 ar
   3    1   10 1
   4    2    7 1
   5    2    6 ar
   6    3    4 ar
   7    3   31 1
   8    4    5 ar
   9    4   32 1
  10    5    6 ar
  11    5   33 1
  12    6   34 1
  13    7    8 2
  14    8    9 1
  15    8   15 1
  16    9   10 am
  17    9   11 1
  18   10   19 2
  19   11   12 ar
  20   11   13 ar
  21   12   27 ar
  22   12   35 1
  23   13   28 ar
  24   13   36 1
  25   14   27 ar
  26   14   28 ar
  27   14   37 1
  28   15   16 1
  29   15   29 1
  30   15   38 1
  31   16   17 1
  32   16   39 1
  33   17   18 ar
  34   17   20 ar
  35   18   23 ar
  36   20   21 ar
  37   20   24 1
  38   21   22 ar
  39   21   26 1
  40   22   23 ar
  41   23   40 1
  42   24   25 2
  43   25   26 1
  44   25   41 1
  45   26   42 1
  46   27   30 1
  47   28   43 1
  48   29   44 1
  49   29   45 1
  50   29   46 1

#	End of record

