#	Name: ASD01230122
#	Creating user name:	WinNT
#	Creation time:	15. 06. 2019 19:11

#	Modifying user name:	WinNT
#	Modification time:	15. 06. 2019 19:11

#	Program:	/corina/corina34_cracker 3.40 0067  02.08.2006

@<TRIPOS>MOLECULE
ASD01230122
  53   57    0    0    0
SMALL
NO_CHARGES


@<TRIPOS>ATOM
   1 N1            -0.0179     1.4690     0.0101 N.3     
   2 C2             0.0021    -0.0041     0.0020 C.3     
   3 C3             2.7608     0.4691     1.3749 C.ar    
   4 C4             2.0391     1.6578     1.2900 C.ar    
   5 C5             1.3462     2.0141     0.0000 C.3     
   6 C6             3.3978     0.1188     2.5277 C.ar    
   7 C7             3.3275     0.9634     3.6429 C.ar    
   8 C8             2.5942     2.1745     3.5614 C.ar    
   9 C9             1.9495     2.5020     2.3534 C.ar    
  10 C10            3.9768     0.6321     4.8591 C.ar    
  11 C11            3.8608     1.5195     5.9202 C.ar    
  12 C12            3.1181     2.6946     5.7582 C.ar    
  13 N13            2.5211     2.9847     4.6177 N.ar    
  14 C14            2.9991     3.6372     6.8966 C.2     
  15 N15            2.2880     4.7738     6.7589 N.am    
  16 O16            3.5427     3.3850     7.9535 O.2     
  17 C17            4.7538    -0.6212     4.9932 C.ar    
  18 C18            6.0513    -0.5890     5.5050 C.ar    
  19 C19           -1.4183    -0.4932     0.1561 C.2     
  20 N20           -2.4355     0.2969     0.5814 N.pl3   
  21 C21           -2.2764     1.7076     0.9443 C.3     
  22 C22           -0.7822     1.9835     1.1552 C.3     
  23 N23           -1.8870    -1.6819    -0.0771 N.2     
  24 C24           -3.2050    -1.6962     0.1838 C.2     
  25 C25           -3.5638    -0.4628     0.5971 C.2     
  26 C26            6.7709    -1.7590     5.6279 C.ar    
  27 C27            6.2071    -2.9656     5.2439 C.ar    
  28 C28            4.9185    -3.0029     4.7349 C.ar    
  29 C29            4.1887    -1.8390     4.6135 C.ar    
  30 F30            6.9162    -4.1091     5.3658 F       
  31 C31           -4.1227    -2.8828     0.0395 C.3     
  32 F32           -3.3729    -4.0134    -0.3023 F       
  33 F33           -4.7843    -3.1107     1.2510 F       
  34 F34           -5.0629    -2.6259    -0.9641 F       
  35 H35            0.4141    -0.3614    -0.9417 H       
  36 H36            0.6089    -0.3686     0.8309 H       
  37 H37            2.8123    -0.1856     0.5175 H       
  38 H38            1.9000     1.5918    -0.8385 H       
  39 H39            1.3034     3.0984    -0.1020 H       
  40 H40            3.9538    -0.8055     2.5812 H       
  41 H41            1.3863     3.4198     2.2709 H       
  42 H42            4.3398     1.3046     6.8640 H       
  43 H43            1.8540     4.9752     5.9151 H       
  44 H44            2.2102     5.3904     7.5036 H       
  45 H45            6.4916     0.3508     5.8041 H       
  46 H46           -2.6569     2.3389     0.1413 H       
  47 H47           -2.8221     1.9141     1.8650 H       
  48 H48           -0.4470     1.4886     2.0667 H       
  49 H49           -0.6210     3.0577     1.2460 H       
  50 H50           -4.5540    -0.1414     0.8845 H       
  51 H51            7.7755    -1.7351     6.0236 H       
  52 H52            4.4836    -3.9455     4.4371 H       
  53 H53            3.1846    -1.8691     4.2168 H       
@<TRIPOS>BOND
   1    1    2 1
   2    1    5 1
   3    1   22 1
   4    2   19 1
   5    2   35 1
   6    2   36 1
   7    3    4 ar
   8    3    6 ar
   9    3   37 1
  10    4    5 1
  11    4    9 ar
  12    5   38 1
  13    5   39 1
  14    6    7 ar
  15    6   40 1
  16    7    8 ar
  17    7   10 ar
  18    8    9 ar
  19    8   13 ar
  20    9   41 1
  21   10   11 ar
  22   10   17 1
  23   11   12 ar
  24   11   42 1
  25   12   13 ar
  26   12   14 1
  27   14   15 am
  28   14   16 2
  29   15   43 1
  30   15   44 1
  31   17   18 ar
  32   17   29 ar
  33   18   26 ar
  34   18   45 1
  35   19   20 1
  36   19   23 2
  37   20   21 1
  38   20   25 1
  39   21   22 1
  40   21   46 1
  41   21   47 1
  42   22   48 1
  43   22   49 1
  44   23   24 1
  45   24   31 1
  46   24   25 2
  47   25   50 1
  48   26   27 ar
  49   26   51 1
  50   27   28 ar
  51   27   30 1
  52   28   29 ar
  53   28   52 1
  54   29   53 1
  55   31   32 1
  56   31   33 1
  57   31   34 1

#	End of record

