#	Name: ASD01910854
#	Creating user name:	WinNT
#	Creation time:	15. 06. 2019 19:56

#	Modifying user name:	WinNT
#	Modification time:	15. 06. 2019 19:56

#	Program:	/corina/corina34_cracker 3.40 0067  02.08.2006

@<TRIPOS>MOLECULE
ASD01910854
  54   57    0    0    0
SMALL
NO_CHARGES


@<TRIPOS>ATOM
   1 C1            -0.0168     1.3842     0.0097 C.ar    
   2 C2             0.0021    -0.0041     0.0020 C.ar    
   3 C3             1.2266    -0.6477    -0.0131 C.ar    
   4 C4             2.3908     0.1134    -0.0202 C.ar    
   5 N5             2.3311     1.4363    -0.0120 N.ar    
   6 C6             1.1776     2.0767     0.0020 C.ar    
   7 N7             3.6279    -0.5202    -0.0354 N.3     
   8 C8             4.7216     0.4605    -0.0406 C.3     
   9 C9             6.0587    -0.2697     0.1253 C.3     
  10 N10            6.1531    -1.3121    -0.9080 N.am    
  11 C11            5.0298    -2.2501    -1.0549 C.3     
  12 C12            3.7333    -1.4420    -1.1743 C.3     
  13 S13            7.4886    -1.4262    -1.8805 S.o2    
  14 C14            8.6304    -2.4993    -1.0747 C.ar    
  15 C15            8.5890    -3.8605    -1.3196 C.ar    
  16 C16            9.4822    -4.7112    -0.6917 C.ar    
  17 C17           10.4205    -4.2072     0.1839 C.ar    
  18 C18           10.4686    -2.8330     0.4364 C.ar    
  19 C19            9.5670    -1.9796    -0.2058 C.ar    
  20 C20           11.4401    -2.3018     1.3444 C.1     
  21 C21           12.2367    -1.8663     2.0889 C.1     
  22 C22           13.2083    -1.3351     2.9969 C.2     
  23 O23            7.0696    -2.0989    -3.0600 O.2     
  24 O24            8.0880    -0.1379    -1.8919 O.2     
  25 C25           13.2189     0.1469     3.2342 C.3     
  26 C26           14.0004     0.4705     4.5092 C.3     
  27 C27           15.3515    -0.2526     4.4490 C.3     
  28 C28           15.1017    -1.7585     4.5537 C.3     
  29 C29           14.0384    -2.1762     3.5802 C.2     
  30 H30           -0.9562     1.9169     0.0170 H       
  31 H31           -0.9185    -0.5688     0.0081 H       
  32 H32            1.2778    -1.7264    -0.0191 H       
  33 H33            1.1676     3.1567     0.0082 H       
  34 H34            4.7186     1.0037    -0.9855 H       
  35 H35            4.5854     1.1615     0.7829 H       
  36 H36            6.8793     0.4380     0.0077 H       
  37 H37            6.1055    -0.7280     1.1132 H       
  38 H38            5.1703    -2.8518    -1.9528 H       
  39 H39            4.9777    -2.8988    -0.1805 H       
  40 H40            2.8803    -2.1206    -1.1731 H       
  41 H41            3.7441    -0.8723    -2.1035 H       
  42 H42            7.8558    -4.2611    -2.0039 H       
  43 H43            9.4438    -5.7726    -0.8879 H       
  44 H44           11.1163    -4.8723     0.6736 H       
  45 H45            9.5985    -0.9169    -0.0159 H       
  46 H46           13.6886     0.6453     2.3862 H       
  47 H47           12.1942     0.5036     3.3382 H       
  48 H48           14.1635     1.5462     4.5757 H       
  49 H49           13.4401     0.1278     5.3791 H       
  50 H50           15.8452    -0.0282     3.5035 H       
  51 H51           15.9784     0.0732     5.2790 H       
  52 H52           16.0256    -2.2941     4.3353 H       
  53 H53           14.7761    -2.0013     5.5652 H       
  54 H54           13.9536    -3.2253     3.3382 H       
@<TRIPOS>BOND
   1    1    2 ar
   2    1    6 ar
   3    1   30 1
   4    2    3 ar
   5    2   31 1
   6    3    4 ar
   7    3   32 1
   8    4    5 ar
   9    4    7 1
  10    5    6 ar
  11    6   33 1
  12    7    8 1
  13    7   12 1
  14    8    9 1
  15    8   34 1
  16    8   35 1
  17    9   10 1
  18    9   36 1
  19    9   37 1
  20   10   11 1
  21   10   13 am
  22   11   12 1
  23   11   38 1
  24   11   39 1
  25   12   40 1
  26   12   41 1
  27   13   14 1
  28   13   23 2
  29   13   24 2
  30   14   15 ar
  31   14   19 ar
  32   15   16 ar
  33   15   42 1
  34   16   17 ar
  35   16   43 1
  36   17   18 ar
  37   17   44 1
  38   18   19 ar
  39   18   20 1
  40   19   45 1
  41   20   21 3
  42   21   22 1
  43   22   25 1
  44   22   29 2
  45   25   26 1
  46   25   46 1
  47   25   47 1
  48   26   27 1
  49   26   48 1
  50   26   49 1
  51   27   28 1
  52   27   50 1
  53   27   51 1
  54   28   29 1
  55   28   52 1
  56   28   53 1
  57   29   54 1

#	End of record

