#	Name: ASD01900288
#	Creating user name:	WinNT
#	Creation time:	15. 06. 2019 19:51

#	Modifying user name:	WinNT
#	Modification time:	15. 06. 2019 19:51

#	Program:	/corina/corina34_cracker 3.40 0067  02.08.2006

@<TRIPOS>MOLECULE
ASD01900288
  61   65    0    0    0
SMALL
NO_CHARGES


@<TRIPOS>ATOM
   1 C1             1.4507     0.0459    -0.7252 C.ar    
   2 C2             1.9245    -1.2229    -0.9868 C.ar    
   3 C3             3.2841    -1.4497    -1.1333 C.ar    
   4 C4             4.1862    -0.4101    -1.0142 C.ar    
   5 C5             3.7275     0.8693    -0.7495 C.ar    
   6 C6             2.3483     1.1046    -0.6097 C.ar    
   7 N7             4.5979     1.9440    -0.6057 N.pl3   
   8 C8             4.1215     3.2900    -0.9432 C.3     
   9 N9             2.7714     3.4968    -0.4177 N.am    
  10 C10            1.8928     2.4780    -0.3319 C.2     
  11 C11            5.0684     4.3292    -0.3358 C.3     
  12 C12            4.1070     3.4552    -2.4656 C.3     
  13 C13            3.6737     4.8811    -2.8137 C.3     
  14 N14            4.6068     5.8397    -2.2082 N.3     
  15 C15            4.6067     5.7302    -0.7439 C.3     
  16 C16            2.3856     4.7752     0.0043 C.ar    
  17 C17            2.8135     5.2596     1.2333 C.ar    
  18 C18            2.4326     6.5202     1.6487 C.ar    
  19 C19            1.6228     7.3027     0.8386 C.ar    
  20 C20            1.1949     6.8194    -0.3893 C.ar    
  21 C21            1.5796     5.5613    -0.8086 C.ar    
  22 C22            0.5123     9.3399     0.3174 C.3     
  23 O23            1.2478     8.5437     1.2486 O.3     
  24 C24            4.3013     7.2122    -2.6335 C.3     
  25 C25            5.2307     8.1725    -1.9370 C.ar    
  26 C26            6.4621     8.4672    -2.4922 C.ar    
  27 C27            7.3159     9.3488    -1.8533 C.ar    
  28 C28            6.9350     9.9361    -0.6560 C.ar    
  29 C29            5.7019     9.6391    -0.1029 C.ar    
  30 C30            4.8487     8.7621    -0.7467 C.ar    
  31 O31            0.7344     2.6906    -0.0287 O.2     
  32 C32            3.7823    -2.8418    -1.4244 C.3     
  33 F33            7.7672    10.7969    -0.0301 F       
  34 F34            8.5196     9.6370    -2.3950 F       
  35 F35           -0.7144     8.7250     0.0449 F       
  36 F36            0.2871    10.6079     0.8637 F       
  37 F37            1.2441     9.4662    -0.8682 F       
  38 F38            2.6958    -3.7199    -1.4994 F       
  39 F39            4.4700    -2.8457    -2.6427 F       
  40 F40            4.6438    -3.2522    -0.4014 F       
  41 H41            0.3902     0.2180    -0.6152 H       
  42 H42            1.2310    -2.0458    -1.0778 H       
  43 H43            5.2444    -0.5945    -1.1267 H       
  44 H44            5.5039     1.8063    -0.2876 H       
  45 H45            5.0545     4.2434     0.7508 H       
  46 H46            6.0805     4.1581    -0.7025 H       
  47 H47            5.1058     3.2713    -2.8613 H       
  48 H48            3.4051     2.7446    -2.9022 H       
  49 H49            3.6754     5.0070    -3.8964 H       
  50 H50            2.6694     5.0596    -2.4293 H       
  51 H51            3.5990     5.9048    -0.3668 H       
  52 H52            5.2851     6.4729    -0.3241 H       
  53 H53            3.4437     4.6504     1.8642 H       
  54 H54            2.7651     6.8970     2.6047 H       
  55 H55            0.5644     7.4292    -1.0194 H       
  56 H56            1.2504     5.1871    -1.7667 H       
  57 H57            4.4337     7.2963    -3.7122 H       
  58 H58            3.2701     7.4519    -2.3742 H       
  59 H59            6.7577     8.0090    -3.4244 H       
  60 H60            5.4043    10.0955     0.8296 H       
  61 H61            3.8846     8.5341    -0.3168 H       
@<TRIPOS>BOND
   1    1    2 ar
   2    1    6 ar
   3    1   41 1
   4    2    3 ar
   5    2   42 1
   6    3    4 ar
   7    3   32 1
   8    4    5 ar
   9    4   43 1
  10    5    7 1
  11    5    6 ar
  12    6   10 1
  13    7    8 1
  14    7   44 1
  15    8    9 1
  16    8   12 1
  17    8   11 1
  18    9   10 am
  19    9   16 1
  20   10   31 2
  21   11   15 1
  22   11   45 1
  23   11   46 1
  24   12   13 1
  25   12   47 1
  26   12   48 1
  27   13   14 1
  28   13   49 1
  29   13   50 1
  30   14   15 1
  31   14   24 1
  32   15   51 1
  33   15   52 1
  34   16   17 ar
  35   16   21 ar
  36   17   18 ar
  37   17   53 1
  38   18   19 ar
  39   18   54 1
  40   19   20 ar
  41   19   23 1
  42   20   21 ar
  43   20   55 1
  44   21   56 1
  45   22   23 1
  46   22   35 1
  47   22   36 1
  48   22   37 1
  49   24   25 1
  50   24   57 1
  51   24   58 1
  52   25   26 ar
  53   25   30 ar
  54   26   27 ar
  55   26   59 1
  56   27   28 ar
  57   27   34 1
  58   28   29 ar
  59   28   33 1
  60   29   30 ar
  61   29   60 1
  62   30   61 1
  63   32   38 1
  64   32   39 1
  65   32   40 1

#	End of record

