#	Name: ASD02560358
#	Creating user name:	WinNT
#	Creation time:	15. 06. 2019 20:25

#	Modifying user name:	WinNT
#	Modification time:	15. 06. 2019 20:25

#	Program:	/corina/corina34_cracker 3.40 0067  02.08.2006

@<TRIPOS>MOLECULE
ASD02560358
  47   51    0    0    0
SMALL
NO_CHARGES


@<TRIPOS>ATOM
   1 C1             0.5124     1.5354    -1.8447 C.2     
   2 C2             0.6332     0.1572    -2.0962 C.2     
   3 C3             1.6389    -0.5504    -1.5434 C.2     
   4 N4             2.5557     0.0600    -0.7308 N.pl3   
   5 C5             2.4634     1.4071    -0.4669 C.2     
   6 C6             1.4149     2.1571    -1.0402 C.2     
   7 C7             3.6486    -0.4126    -0.0572 C.2     
   8 C8             4.2030     0.6616     0.6070 C.2     
   9 N9             3.4585     1.7483     0.3358 N.2     
  10 C10            5.4077     0.6245     1.4694 C.ar    
  11 N11            4.1129    -1.7285    -0.0442 N.pl3   
  12 C12            3.4065    -2.7108     0.6511 C.ar    
  13 C13            3.7989    -4.0289     0.5570 C.ar    
  14 C14            2.3096    -2.3469     1.4420 C.ar    
  15 C15            1.6042    -3.2826     2.1305 C.ar    
  16 C16            1.9737    -4.6368     2.0528 C.ar    
  17 C17            3.0859    -5.0140     1.2583 C.ar    
  18 C18            1.2622    -5.6254     2.7535 C.ar    
  19 C19            1.6452    -6.9280     2.6570 C.ar    
  20 C20            2.7356    -7.2994     1.8724 C.ar    
  21 C21            3.4516    -6.3697     1.1833 C.ar    
  22 C22            6.2815     1.7112     1.4966 C.ar    
  23 C23            7.4017     1.6733     2.3003 C.ar    
  24 C24            7.6599     0.5553     3.0816 C.ar    
  25 C25            6.7923    -0.5281     3.0570 C.ar    
  26 C26            5.6672    -0.4947     2.2599 C.ar    
  27 O27            8.7650     0.5211     3.8721 O.3     
  28 C28            8.9699    -0.6600     4.6501 C.3     
  29 H29           -0.2924     2.0992    -2.2929 H       
  30 H30           -0.0835    -0.3372    -2.7353 H       
  31 H31            1.7217    -1.6085    -1.7433 H       
  32 H32            1.3302     3.2154    -0.8421 H       
  33 H33            4.9267    -1.9604    -0.5184 H       
  34 H34            4.6481    -4.3017    -0.0519 H       
  35 H35            2.0204    -1.3083     1.5061 H       
  36 H36            0.7610    -2.9862     2.7368 H       
  37 H37            0.4155    -5.3529     3.3661 H       
  38 H38            1.0960    -7.6851     3.1969 H       
  39 H39            3.0189    -8.3399     1.8137 H       
  40 H40            4.2943    -6.6719     0.5792 H       
  41 H41            6.0814     2.5812     0.8887 H       
  42 H42            8.0790     2.5142     2.3216 H       
  43 H43            6.9965    -1.3964     3.6658 H       
  44 H44            4.9925    -1.3378     2.2415 H       
  45 H45            8.1242    -0.8033     5.3226 H       
  46 H46            9.0572    -1.5209     3.9873 H       
  47 H47            9.8847    -0.5565     5.2337 H       
@<TRIPOS>BOND
   1    1    2 1
   2    1    6 2
   3    1   29 1
   4    2    3 2
   5    2   30 1
   6    3    4 1
   7    3   31 1
   8    4    5 1
   9    4    7 1
  10    5    6 1
  11    5    9 2
  12    6   32 1
  13    7    8 2
  14    7   11 1
  15    8    9 1
  16    8   10 1
  17   10   22 ar
  18   10   26 ar
  19   11   12 1
  20   11   33 1
  21   12   14 ar
  22   12   13 ar
  23   13   17 ar
  24   13   34 1
  25   14   15 ar
  26   14   35 1
  27   15   16 ar
  28   15   36 1
  29   16   17 ar
  30   16   18 ar
  31   17   21 ar
  32   18   19 ar
  33   18   37 1
  34   19   20 ar
  35   19   38 1
  36   20   21 ar
  37   20   39 1
  38   21   40 1
  39   22   23 ar
  40   22   41 1
  41   23   24 ar
  42   23   42 1
  43   24   25 ar
  44   24   27 1
  45   25   26 ar
  46   25   43 1
  47   26   44 1
  48   27   28 1
  49   28   45 1
  50   28   46 1
  51   28   47 1

#	End of record

