#	Name: ASD00100076
#	Creating user name:	WinNT
#	Creation time:	15. 06. 2019 18:30

#	Modifying user name:	WinNT
#	Modification time:	15. 06. 2019 18:30

#	Program:	/corina/corina34_cracker 3.40 0067  02.08.2006

@<TRIPOS>MOLECULE
ASD00100076
  69   73    0    0    0
SMALL
NO_CHARGES


@<TRIPOS>ATOM
   1 C1            -0.0165     1.3623     0.0095 C.2     
   2 C2             0.0021    -0.0041     0.0020 C.2     
   3 C3             1.2719    -0.5305    -0.0129 C.2     
   4 C4             2.2604     0.3715    -0.0175 C.2     
   5 S5             1.6372     1.9597    -0.0030 S.3     
   6 C6            -1.2218     2.1963     0.0200 C.2     
   7 O7            -2.3219     1.6758     0.0226 O.2     
   8 N8            -1.1118     3.5395     0.0268 N.am    
   9 C9            -2.3166     4.3731     0.0372 C.3     
  10 C10           -1.9891     5.7350     0.6527 C.3     
  11 C11           -3.2472     6.6056     0.6636 C.3     
  12 C12           -3.7452     6.8002    -0.7699 C.3     
  13 C13           -4.0727     5.4382    -1.3854 C.3     
  14 C14           -2.8146     4.5677    -1.3963 C.3     
  15 C15           -5.0034     7.6707    -0.7590 C.3     
  16 C16           -5.4299     7.9687    -2.1978 C.3     
  17 N17           -6.6379     8.8045    -2.1873 N.3     
  18 C18           -6.9418     9.3071    -3.5332 C.3     
  19 C19           -8.1152    10.2868    -3.4605 C.3     
  20 C20           -9.3357     9.5712    -2.8748 C.3     
  21 C21           -8.9777     9.0156    -1.4937 C.3     
  22 C22           -7.7793     8.0727    -1.6235 C.3     
  23 O23          -11.6830    12.2881    -2.1467 O.3     
  24 C24          -10.4938    11.6738    -2.0205 C.2     
  25 C25          -10.4770    10.5466    -2.7449 C.2     
  26 C26          -11.7938    10.4533    -3.3868 C.ar    
  27 C27          -12.5007    11.5904    -2.9607 C.ar    
  28 C28          -12.3952     9.5369    -4.2478 C.ar    
  29 C29          -13.6860     9.7530    -4.6778 C.ar    
  30 C30          -14.3845    10.8754    -4.2575 C.ar    
  31 C31          -13.8011    11.7893    -3.4061 C.ar    
  32 S32            3.9765    -0.0278    -0.0361 S.o2    
  33 O33            4.6039     1.0944     0.5692 O.2     
  34 O34            4.0432    -1.3152     0.5617 O.2     
  35 C35            4.4005    -0.1209    -1.7973 C.3     
  36 H36           -0.8919    -0.6100     0.0079 H       
  37 H37            1.4581    -1.5943    -0.0201 H       
  38 H38           -0.2350     3.9544     0.0247 H       
  39 H39           -3.0914     3.8844     0.6279 H       
  40 H40           -1.6343     5.5964     1.6739 H       
  41 H41           -1.2142     6.2238     0.0620 H       
  42 H42           -4.0221     6.1168     1.2542 H       
  43 H43           -3.0139     7.5758     1.1020 H       
  44 H44           -2.9704     7.2889    -1.3606 H       
  45 H45           -4.8476     4.9495    -0.7947 H       
  46 H46           -4.4275     5.5768    -2.4066 H       
  47 H47           -2.0397     5.0564    -1.9869 H       
  48 H48           -3.0479     3.5974    -1.8347 H       
  49 H49           -5.8060     7.1428    -0.2441 H       
  50 H50           -4.7932     8.6065    -0.2411 H       
  51 H51           -4.6272     8.4966    -2.7128 H       
  52 H52           -5.6400     7.0329    -2.7157 H       
  53 H53           -6.0671     9.8173    -3.9365 H       
  54 H54           -7.2059     8.4717    -4.1818 H       
  55 H55           -7.8468    11.1293    -2.8231 H       
  56 H56           -8.3506    10.6476    -4.4617 H       
  57 H57           -9.6281     8.7525    -3.5323 H       
  58 H58           -8.7229     9.8381    -0.8254 H       
  59 H59           -9.8293     8.4682    -1.0897 H       
  60 H60           -8.0394     7.2431    -2.2809 H       
  61 H61           -7.5129     7.6864    -0.6396 H       
  62 H62           -9.6711    12.0363    -1.4220 H       
  63 H63          -11.8524     8.6628    -4.5760 H       
  64 H64          -14.1560     9.0458    -5.3452 H       
  65 H65          -15.3959    11.0351    -4.6011 H       
  66 H66          -14.3549    12.6593    -3.0856 H       
  67 H67            4.2013     0.8407    -2.2704 H       
  68 H68            5.4571    -0.3664    -1.9042 H       
  69 H69            3.7979    -0.8929    -2.2758 H       
@<TRIPOS>BOND
   1    1    2 2
   2    1    5 1
   3    1    6 1
   4    2    3 1
   5    2   36 1
   6    3    4 2
   7    3   37 1
   8    4    5 1
   9    4   32 1
  10    6    7 2
  11    6    8 am
  12    8    9 1
  13    8   38 1
  14    9   10 1
  15    9   14 1
  16    9   39 1
  17   10   11 1
  18   10   40 1
  19   10   41 1
  20   11   12 1
  21   11   42 1
  22   11   43 1
  23   12   13 1
  24   12   15 1
  25   12   44 1
  26   13   14 1
  27   13   45 1
  28   13   46 1
  29   14   47 1
  30   14   48 1
  31   15   16 1
  32   15   49 1
  33   15   50 1
  34   16   17 1
  35   16   51 1
  36   16   52 1
  37   17   18 1
  38   17   22 1
  39   18   19 1
  40   18   53 1
  41   18   54 1
  42   19   20 1
  43   19   55 1
  44   19   56 1
  45   20   21 1
  46   20   25 1
  47   20   57 1
  48   21   22 1
  49   21   58 1
  50   21   59 1
  51   22   60 1
  52   22   61 1
  53   23   24 1
  54   23   27 1
  55   24   25 2
  56   24   62 1
  57   25   26 1
  58   26   27 ar
  59   26   28 ar
  60   27   31 ar
  61   28   29 ar
  62   28   63 1
  63   29   30 ar
  64   29   64 1
  65   30   31 ar
  66   30   65 1
  67   31   66 1
  68   32   33 2
  69   32   34 2
  70   32   35 1
  71   35   67 1
  72   35   68 1
  73   35   69 1

#	End of record

