#	Name: ASD01100065
#	Creating user name:	WinNT
#	Creation time:	15. 06. 2019 18:58

#	Modifying user name:	WinNT
#	Modification time:	15. 06. 2019 18:58

#	Program:	/corina/corina34_cracker 3.40 0067  02.08.2006

@<TRIPOS>MOLECULE
ASD01100065
  52   54    0    0    0
SMALL
NO_CHARGES


@<TRIPOS>ATOM
   1 C1             0.2703     1.7623    -2.0927 C.ar    
   2 C2            -0.0213     0.4558    -1.7431 C.ar    
   3 C3             0.8594    -0.2613    -0.9531 C.ar    
   4 C4             2.0300     0.3278    -0.5136 C.ar    
   5 C5             2.3208     1.6333    -0.8632 C.ar    
   6 C6             1.4411     2.3503    -1.6526 C.ar    
   7 C7             3.5970     2.2751    -0.3833 C.3     
   8 C8             3.2683     3.3496     0.6551 C.3     
   9 C9             2.7084     2.6868     1.9153 C.3     
  10 C10            4.5400     4.1237     1.0081 C.3     
  11 Cl11          -1.4920    -0.2832    -2.2950 Cl      
  12 C12            4.3116     2.9062    -1.5503 C.2     
  13 N13            5.6356     3.1483    -1.4789 N.am    
  14 O14            3.6953     3.1964    -2.5539 O.2     
  15 C15            6.3146     3.6381    -2.5911 C.2     
  16 N16            5.7794     3.8981    -3.7430 N.2     
  17 C17            6.5805     4.3588    -4.6874 C.2     
  18 C18            7.8652     4.5035    -4.3367 C.2     
  19 S19            8.0353     4.0095    -2.6536 S.3     
  20 C20            2.2279     4.3130     0.0803 C.3     
  21 C21           11.1695     5.8860    -5.1945 C.3     
  22 C22           10.1705     4.9983    -4.4459 C.3     
  23 N23            8.8931     4.9716    -5.1622 N.3     
  24 C24            8.9636     4.1970    -6.4033 C.3     
  25 C25            9.7787     4.9625    -7.4501 C.3     
  26 S26           11.4775     5.1620    -6.8336 S.o2    
  27 O27           12.1444     6.1243    -7.6388 O.2     
  28 O28           12.0540     3.8746    -6.6620 O.2     
  29 H29           -0.4147     2.3211    -2.7131 H       
  30 H30            0.6322    -1.2811    -0.6795 H       
  31 H31            2.7174    -0.2318     0.1035 H       
  32 H32            1.6689     3.3702    -1.9255 H       
  33 H33            4.2373     1.5173     0.0682 H       
  34 H34            3.4496     2.0005     2.3248 H       
  35 H35            2.4742     3.4523     2.6550 H       
  36 H36            1.8024     2.1353     1.6638 H       
  37 H37            5.0120     4.4834     0.0938 H       
  38 H38            4.2845     4.9720     1.6431 H       
  39 H39            5.2294     3.4672     1.5389 H       
  40 H40            6.1153     2.9812    -0.6525 H       
  41 H41            6.2231     4.6023    -5.6771 H       
  42 H42            1.3030     3.7719    -0.1195 H       
  43 H43            2.0347     5.1099     0.7985 H       
  44 H44            2.6047     4.7434    -0.8474 H       
  45 H45           10.7545     6.8874    -5.3092 H       
  46 H46           12.1040     5.9367    -4.6356 H       
  47 H47           10.5676     3.9857    -4.3759 H       
  48 H48           10.0147     5.3949    -3.4426 H       
  49 H49            9.4402     3.2370    -6.2044 H       
  50 H50            7.9557     4.0277    -6.7821 H       
  51 H51            9.7924     4.4017    -8.3847 H       
  52 H52            9.3323     5.9430    -7.6158 H       
@<TRIPOS>BOND
   1    1    2 ar
   2    1    6 ar
   3    1   29 1
   4    2    3 ar
   5    2   11 1
   6    3    4 ar
   7    3   30 1
   8    4    5 ar
   9    4   31 1
  10    5    6 ar
  11    5    7 1
  12    6   32 1
  13    7    8 1
  14    7   12 1
  15    7   33 1
  16    8    9 1
  17    8   10 1
  18    8   20 1
  19    9   34 1
  20    9   35 1
  21    9   36 1
  22   10   37 1
  23   10   38 1
  24   10   39 1
  25   12   13 am
  26   12   14 2
  27   13   15 1
  28   13   40 1
  29   15   16 2
  30   15   19 1
  31   16   17 1
  32   17   18 2
  33   17   41 1
  34   18   19 1
  35   18   23 1
  36   20   42 1
  37   20   43 1
  38   20   44 1
  39   21   22 1
  40   21   26 1
  41   21   45 1
  42   21   46 1
  43   22   23 1
  44   22   47 1
  45   22   48 1
  46   23   24 1
  47   24   25 1
  48   24   49 1
  49   24   50 1
  50   25   26 1
  51   25   51 1
  52   25   52 1
  53   26   27 2
  54   26   28 2

#	End of record

