#	Name: ASD03092018
#	Creating user name:	WinNT
#	Creation time:	15. 06. 2019 20:31

#	Modifying user name:	WinNT
#	Modification time:	15. 06. 2019 20:31

#	Program:	/corina/corina34_cracker 3.40 0067  02.08.2006

@<TRIPOS>MOLECULE
ASD03092018
  40   42    0    0    0
SMALL
NO_CHARGES


@<TRIPOS>ATOM
   1 N1             0.1285     1.4958     0.0412 N.am    
   2 C2             0.1158     0.1276    -0.0385 C.2     
   3 C3            -1.1886    -0.2649    -0.0901 C.2     
   4 C4            -1.9870     0.8893    -0.0408 C.2     
   5 N5            -1.2010     1.9366     0.0426 N.2     
   6 C6             1.2244     2.2772     0.1114 C.2     
   7 N7             1.0993     3.6185     0.0722 N.am    
   8 C8             2.2906     4.4678     0.1486 C.3     
   9 N9            -3.3837     0.9174    -0.0700 N.pl3   
  10 C10           -4.0621     2.1303     0.0850 C.ar    
  11 C11           -3.5149     3.3023    -0.4202 C.ar    
  12 C12           -4.1879     4.5008    -0.2655 C.ar    
  13 C13           -5.4077     4.5311     0.3934 C.ar    
  14 C14           -5.9534     3.3629     0.8971 C.ar    
  15 C15           -5.2870     2.1634     0.7395 C.ar    
  16 F16           -3.6566     5.6420    -0.7560 F       
  17 C17            1.2991    -0.7594    -0.0645 C.ar    
  18 O18            2.3253     1.7722     0.2100 O.2     
  19 C19            2.4542    -0.3842    -0.7594 C.ar    
  20 C20            3.5343    -1.2497    -0.7524 C.ar    
  21 C21            3.4384    -2.4462    -0.0655 C.ar    
  22 N22            2.3361    -2.7738     0.5812 N.ar    
  23 C23            1.2844    -1.9818     0.6083 C.ar    
  24 F24           -6.0640     5.7023     0.5443 F       
  25 C25            1.8735     5.9384     0.0833 C.3     
  26 H26           -1.5446    -1.2823    -0.1569 H       
  27 H27            0.2206     4.0216    -0.0065 H       
  28 H28            2.8117     4.2793     1.0872 H       
  29 H29            2.9529     4.2406    -0.6868 H       
  30 H30           -3.8828     0.0954    -0.1978 H       
  31 H31           -2.5647     3.2782    -0.9330 H       
  32 H32           -6.9035     3.3888     1.4099 H       
  33 H33           -5.7140     1.2526     1.1326 H       
  34 H34            2.5016     0.5564    -1.2879 H       
  35 H35            4.4422    -0.9935    -1.2781 H       
  36 H36            4.2795    -3.1236    -0.0586 H       
  37 H37            0.3998    -2.2848     1.1487 H       
  38 H38            1.3524     6.1270    -0.8553 H       
  39 H39            1.2111     6.1656     0.9187 H       
  40 H40            2.7598     6.5703     0.1401 H       
@<TRIPOS>BOND
   1    1    2 1
   2    1    6 am
   3    1    5 1
   4    2    3 2
   5    2   17 1
   6    3    4 1
   7    3   26 1
   8    4    5 2
   9    4    9 1
  10    6    7 am
  11    6   18 2
  12    7    8 1
  13    7   27 1
  14    8   25 1
  15    8   28 1
  16    8   29 1
  17    9   10 1
  18    9   30 1
  19   10   11 ar
  20   10   15 ar
  21   11   12 ar
  22   11   31 1
  23   12   13 ar
  24   12   16 1
  25   13   14 ar
  26   13   24 1
  27   14   15 ar
  28   14   32 1
  29   15   33 1
  30   17   19 ar
  31   17   23 ar
  32   19   20 ar
  33   19   34 1
  34   20   21 ar
  35   20   35 1
  36   21   22 ar
  37   21   36 1
  38   22   23 ar
  39   23   37 1
  40   25   38 1
  41   25   39 1
  42   25   40 1

#	End of record

