#	Name: ASD03091341
#	Creating user name:	WinNT
#	Creation time:	15. 06. 2019 20:30

#	Modifying user name:	WinNT
#	Modification time:	15. 06. 2019 20:30

#	Program:	/corina/corina34_cracker 3.40 0067  02.08.2006

@<TRIPOS>MOLECULE
ASD03091341
  68   70    0    0    0
SMALL
NO_CHARGES


@<TRIPOS>ATOM
   1 O1            -1.3867    -0.2299     3.0044 O.3     
   2 N2            -0.9280    -1.0933     1.9802 N.pl3   
   3 C3            -1.8359    -1.9239     1.3028 C.2     
   4 C4            -3.1336    -1.8991     1.6251 C.2     
   5 C5            -1.3569    -2.8254     0.2333 C.ar    
   6 C6            -0.2348    -3.6272     0.4433 C.ar    
   7 C7             0.2091    -4.4677    -0.5568 C.ar    
   8 C8            -0.4556    -4.5199    -1.7722 C.ar    
   9 C9            -1.5710    -3.7284    -1.9934 C.ar    
  10 C10           -2.0315    -2.8826    -0.9934 C.ar    
  11 N11           -3.1597    -2.0873    -1.2115 N.pl3   
  12 C12           -3.0203    -0.7052    -1.3732 C.ar    
  13 C13           -4.1489     0.1037    -1.4634 C.ar    
  14 C14           -1.7556    -0.1364    -1.4386 C.ar    
  15 C15           -1.6209     1.2294    -1.5985 C.ar    
  16 C16           -2.7438     2.0310    -1.6931 C.ar    
  17 C17           -4.0066     1.4693    -1.6233 C.ar    
  18 F18           -0.0135    -5.3461    -2.7455 F       
  19 F19           -2.2139    -3.7838    -3.1803 F       
  20 F20           -5.3816    -0.4448    -1.3952 F       
  21 I21           -2.5327     4.1013    -1.9341 I       
  22 O22           -3.9929    -2.7846     1.0542 O.3     
  23 H23           -0.6896     0.3021     3.4120 H       
  24 H24            0.0132    -1.1113     1.7464 H       
  25 H25           -3.4990    -1.1757     2.3390 H       
  26 H26            0.2866    -3.5897     1.3884 H       
  27 H27            1.0782    -5.0872    -0.3922 H       
  28 H28           -4.0395    -2.4939    -1.2506 H       
  29 H29           -0.8777    -0.7610    -1.3641 H       
  30 H30           -0.6369     1.6718    -1.6493 H       
  31 H31           -4.8817     2.0984    -1.6938 H       
  32 H32           -4.8931    -2.7410     1.4047 H       
  33 C33            7.0804    10.9855     9.3170 C.2     
  34 C34            7.1008     9.4786     9.3088 C.3     
  35 C35            8.2058    11.6558     9.3099 C.2     
  36 H36            6.1379    11.5127     9.3244 H       
  37 H37            7.6110     9.1271     8.4120 H       
  38 H38            7.6280     9.1175    10.1918 H       
  39 H39            6.0782     9.1013     9.3165 H       
  40 H40            9.1483    11.1286     9.2981 H       
  41 H41            8.1912    12.7357     9.3158 H       
  42 C42           17.6805    20.8133    15.2325 C.ar    
  43 N43           17.6983    19.4960    15.2252 N.ar    
  44 C44           18.8279    18.8153    15.2108 C.ar    
  45 C45           20.0502    19.4626    15.2030 C.ar    
  46 C46           20.0834    20.8464    15.2101 C.ar    
  47 C47           18.8694    21.5385    15.2250 C.ar    
  48 C48           18.8476    23.0228    15.2333 C.2     
  49 N49           17.7486    23.8058    15.2480 N.2     
  50 C50           18.1991    25.0461    15.2504 C.2     
  51 O51           19.5391    24.9739    15.2372 O.3     
  52 N52           19.8902    23.8131    15.2333 N.2     
  53 C53           17.3836    26.2794    15.2648 C.ar    
  54 C54           15.9893    26.1964    15.2777 C.ar    
  55 C55           15.2260    27.3468    15.2912 C.ar    
  56 C56           15.8341    28.5865    15.2920 C.ar    
  57 C57           17.2277    28.6842    15.2792 C.ar    
  58 C58           18.0042    27.5264    15.2714 C.ar    
  59 C59           17.8571    29.9705    15.2801 C.1     
  60 N60           18.3564    30.9908    15.2808 N.1     
  61 H61           16.7352    21.3356    15.2398 H       
  62 H62           18.7981    17.7357    15.2052 H       
  63 H63           20.9687    18.8946    15.1918 H       
  64 H64           21.0237    21.3777    15.2046 H       
  65 H65           15.5071    25.2300    15.2768 H       
  66 H66           14.1483    27.2767    15.3008 H       
  67 H67           15.2312    29.4824    15.3022 H       
  68 H68           19.0819    27.5960    15.2660 H       
@<TRIPOS>BOND
   1    1    2 1
   2    1   23 1
   3    2    3 1
   4    2   24 1
   5    3    4 2
   6    3    5 1
   7    4   22 1
   8    4   25 1
   9    5    6 ar
  10    5   10 ar
  11    6    7 ar
  12    6   26 1
  13    7    8 ar
  14    7   27 1
  15    8    9 ar
  16    8   18 1
  17    9   10 ar
  18    9   19 1
  19   10   11 1
  20   11   12 1
  21   11   28 1
  22   12   14 ar
  23   12   13 ar
  24   13   17 ar
  25   13   20 1
  26   14   15 ar
  27   14   29 1
  28   15   16 ar
  29   15   30 1
  30   16   17 ar
  31   16   21 1
  32   17   31 1
  33   22   32 1
  34   33   34 1
  35   33   35 2
  36   33   36 1
  37   34   37 1
  38   34   38 1
  39   34   39 1
  40   35   40 1
  41   35   41 1
  42   42   43 ar
  43   42   47 ar
  44   42   61 1
  45   43   44 ar
  46   44   45 ar
  47   44   62 1
  48   45   46 ar
  49   45   63 1
  50   46   47 ar
  51   46   64 1
  52   47   48 1
  53   48   49 1
  54   48   52 2
  55   49   50 2
  56   50   51 1
  57   50   53 1
  58   51   52 1
  59   53   54 ar
  60   53   58 ar
  61   54   55 ar
  62   54   65 1
  63   55   56 ar
  64   55   66 1
  65   56   57 ar
  66   56   67 1
  67   57   58 ar
  68   57   59 1
  69   58   68 1
  70   59   60 3

#	End of record

