#	Name: ASD03740097
#	Creating user name:	WinNT
#	Creation time:	15. 06. 2019 20:46

#	Modifying user name:	WinNT
#	Modification time:	15. 06. 2019 20:46

#	Program:	/corina/corina34_cracker 3.40 0067  02.08.2006

@<TRIPOS>MOLECULE
ASD03740097
  50   53    0    0    0
SMALL
NO_CHARGES


@<TRIPOS>ATOM
   1 C1            -0.0168     1.3859     0.0097 C.ar    
   2 C2             0.0021    -0.0041     0.0020 C.ar    
   3 C3            -1.1619    -0.7194     0.0093 C.ar    
   4 C4            -2.3849    -0.0535     0.0245 C.ar    
   5 C5            -2.4062     1.3544     0.0323 C.ar    
   6 C6            -1.2020     2.0651     0.0303 C.ar    
   7 N7            -3.6913    -0.4692     0.0352 N.pl3   
   8 N8            -4.5293     0.6505     0.0495 N.2     
   9 C9            -3.8160     1.7436     0.0483 C.2     
  10 O10           -4.2970     3.0149     0.0603 O.3     
  11 C11           -4.1384    -1.8643     0.0317 C.3     
  12 C12           -5.7173     3.1711     0.0751 C.3     
  13 C13           -6.0665     4.6607     0.0870 C.3     
  14 C14           -7.5872     4.8280     0.1028 C.3     
  15 N15           -7.9224     6.2582     0.1143 N.3     
  16 C16           -9.3651     6.4645    -0.1095 C.3     
  17 C17           -4.2775    -2.3508     1.4512 C.ar    
  18 C18           -5.4815    -2.2085     2.1155 C.ar    
  19 C19           -5.6097    -2.6545     3.4174 C.ar    
  20 C20           -4.5328    -3.2434     4.0558 C.ar    
  21 C21           -3.3281    -3.3856     3.3905 C.ar    
  22 C22           -3.2028    -2.9443     2.0866 C.ar    
  23 Cl23          -4.6929    -3.8033     5.6912 Cl      
  24 Cl24           1.4792     2.2665     0.0001 Cl      
  25 C25           -7.5526     6.8787     1.4042 C.3     
  26 C26           -8.6301     7.9656     1.6437 C.3     
  27 C27           -9.9029     7.2722     1.0905 C.3     
  28 F28          -10.8394     8.2218     0.6677 F       
  29 F29          -10.4592     6.4204     2.0507 F       
  30 H30            0.9482    -0.5247    -0.0102 H       
  31 H31           -1.1336    -1.7990     0.0029 H       
  32 H32           -1.2089     3.1451     0.0366 H       
  33 H33           -5.1019    -1.9358    -0.4729 H       
  34 H34           -3.4070    -2.4790    -0.4930 H       
  35 H35           -6.1434     2.7052    -0.8134 H       
  36 H36           -6.1259     2.6950     0.9664 H       
  37 H37           -5.6404     5.1267     0.9755 H       
  38 H38           -5.6578     5.1368    -0.8043 H       
  39 H39           -8.0133     4.3620    -0.7857 H       
  40 H40           -7.9958     4.3519     0.9942 H       
  41 H41           -9.5211     7.0232    -1.0323 H       
  42 H42           -9.8730     5.5018    -0.1659 H       
  43 H43           -6.3220    -1.7484     1.6172 H       
  44 H44           -6.5502    -2.5429     3.9364 H       
  45 H45           -2.4871    -3.8453     3.8883 H       
  46 H46           -2.2625    -3.0553     1.5671 H       
  47 H47           -7.5773     6.1374     2.2029 H       
  48 H48           -6.5640     7.3328     1.3373 H       
  49 H49           -8.7351     8.1839     2.7065 H       
  50 H50           -8.4030     8.8712     1.0812 H       
@<TRIPOS>BOND
   1    1    2 ar
   2    1   24 1
   3    1    6 ar
   4    2    3 ar
   5    2   30 1
   6    3    4 ar
   7    3   31 1
   8    4    5 ar
   9    4    7 1
  10    5    6 ar
  11    5    9 1
  12    6   32 1
  13    7    8 1
  14    7   11 1
  15    8    9 2
  16    9   10 1
  17   10   12 1
  18   11   17 1
  19   11   33 1
  20   11   34 1
  21   12   13 1
  22   12   35 1
  23   12   36 1
  24   13   14 1
  25   13   37 1
  26   13   38 1
  27   14   15 1
  28   14   39 1
  29   14   40 1
  30   15   16 1
  31   15   25 1
  32   16   27 1
  33   16   41 1
  34   16   42 1
  35   17   18 ar
  36   17   22 ar
  37   18   19 ar
  38   18   43 1
  39   19   20 ar
  40   19   44 1
  41   20   21 ar
  42   20   23 1
  43   21   22 ar
  44   21   45 1
  45   22   46 1
  46   25   26 1
  47   25   47 1
  48   25   48 1
  49   26   27 1
  50   26   49 1
  51   26   50 1
  52   27   28 1
  53   27   29 1

#	End of record

