#	Name: ASD09116119
#	Creating user name:	WinNT
#	Creation time:	15. 06. 2019 21:20

#	Modifying user name:	WinNT
#	Modification time:	15. 06. 2019 21:20

#	Program:	/corina/corina34_cracker 3.40 0067  02.08.2006

@<TRIPOS>MOLECULE
ASD09116119
  28   30    0    0    0
SMALL
NO_CHARGES


@<TRIPOS>ATOM
   1 C1            -0.0171     1.4101     0.0098 C.2     
   2 C2             0.0021    -0.0041     0.0020 C.2     
   3 C3             1.2022    -0.6406     0.0335 C.2     
   4 C4             2.3666     0.1626     0.0480 C.2     
   5 N5             2.2491     1.5033     0.0155 N.am    
   6 N6             1.1037     2.0869     0.0027 N.2     
   7 C7            -1.2913    -0.7639    -0.0631 C.3     
   8 C8            -1.9717    -0.7938     1.3019 C.3     
   9 C9            -1.9284     0.5822     1.9607 C.3     
  10 C10           -2.2821     1.6719     0.9862 C.ar    
  11 C11           -1.3341     2.0898     0.0506 C.ar    
  12 C12           -1.6337     3.1243    -0.8286 C.ar    
  13 C13           -2.8797     3.7194    -0.7856 C.ar    
  14 C14           -3.8246     3.2863     0.1268 C.ar    
  15 C15           -3.5262     2.2649     1.0119 C.ar    
  16 O16            3.4704    -0.3564     0.0901 O.2     
  17 H17            1.2648    -1.7187     0.0472 H       
  18 H18            3.0532     2.0456     0.0015 H       
  19 H19           -1.9535    -0.2836    -0.7835 H       
  20 H20           -1.0912    -1.7854    -0.3865 H       
  21 H21           -3.0107    -1.0994     1.1779 H       
  22 H22           -1.4610    -1.5138     1.9414 H       
  23 H23           -2.6356     0.6025     2.7898 H       
  24 H24           -0.9245     0.7611     2.3460 H       
  25 H25           -0.8958     3.4612    -1.5415 H       
  26 H26           -3.1162     4.5245    -1.4654 H       
  27 H27           -4.8007     3.7480     0.1490 H       
  28 H28           -4.2684     1.9323     1.7225 H       
@<TRIPOS>BOND
   1    1    2 1
   2    1    6 2
   3    1   11 1
   4    2    3 2
   5    2    7 1
   6    3    4 1
   7    3   17 1
   8    4    5 am
   9    4   16 2
  10    5    6 1
  11    5   18 1
  12    7    8 1
  13    7   19 1
  14    7   20 1
  15    8    9 1
  16    8   21 1
  17    8   22 1
  18    9   10 1
  19    9   23 1
  20    9   24 1
  21   10   11 ar
  22   10   15 ar
  23   11   12 ar
  24   12   13 ar
  25   12   25 1
  26   13   14 ar
  27   13   26 1
  28   14   15 ar
  29   14   27 1
  30   15   28 1

#	End of record

