#	Name: ASD01913730
#	Creating user name:	WinNT
#	Creation time:	15. 06. 2019 20:02

#	Modifying user name:	WinNT
#	Modification time:	15. 06. 2019 20:02

#	Program:	/corina/corina34_cracker 3.40 0067  02.08.2006

@<TRIPOS>MOLECULE
ASD01913730
  53   54    0    0    0
SMALL
NO_CHARGES


@<TRIPOS>ATOM
   1 O1             0.6149    -0.4772     2.9873 O.3     
   2 C2             0.6860    -1.7711     2.5914 C.ar    
   3 N3             1.8511    -2.2755     2.2154 N.ar    
   4 C4             1.9714    -3.5264     1.8227 C.ar    
   5 C5             0.8611    -4.3708     1.7892 C.ar    
   6 C6            -0.3883    -3.8675     2.1812 C.ar    
   7 C7            -0.4657    -2.5525     2.5911 C.ar    
   8 C8             0.9990    -5.7725     1.3474 C.2     
   9 N9             2.2041    -6.2454     0.9725 N.am    
  10 O10            0.0255    -6.5004     1.3218 O.2     
  11 C11            2.3410    -7.6365     0.5340 C.3     
  12 C12            1.8307     0.2736     2.9720 C.3     
  13 C13            1.5585     1.6799     3.4403 C.ar    
  14 C14            1.6537     1.9913     4.7836 C.ar    
  15 C15            1.4038     3.2811     5.2148 C.ar    
  16 C16            1.0586     4.2602     4.3030 C.ar    
  17 C17            0.9634     3.9495     2.9568 C.ar    
  18 C18            1.2194     2.6591     2.5256 C.ar    
  19 F19            0.6260     4.9060     2.0644 F       
  20 C20            2.1182    -8.5709     1.7249 C.3     
  21 C21            1.3024    -7.9344    -0.5492 C.3     
  22 C22            3.7454    -7.8572    -0.0315 C.3     
  23 C23            4.0061    -6.8528    -1.1559 C.3     
  24 C24            3.9357    -5.4307    -0.5958 C.3     
  25 C25            5.3950    -7.0995    -1.7483 C.3     
  26 C26            2.9481    -7.0238    -2.2478 C.3     
  27 H27            2.9385    -3.9023     1.5232 H       
  28 H28           -1.2670    -4.4952     2.1667 H       
  29 H29           -1.4111    -2.1317     2.9002 H       
  30 H30            2.9808    -5.6647     0.9929 H       
  31 H31            2.5563    -0.1964     3.6359 H       
  32 H32            2.2293     0.2991     1.9579 H       
  33 H33            1.9230     1.2266     5.4971 H       
  34 H34            1.4781     3.5232     6.2647 H       
  35 H35            0.8628     5.2674     4.6401 H       
  36 H36            1.1454     2.4156     1.4761 H       
  37 H37            1.1526    -8.3536     2.1815 H       
  38 H38            2.1337    -9.6057     1.3828 H       
  39 H39            2.9095    -8.4190     2.4590 H       
  40 H40            1.1295    -7.0371    -1.1433 H       
  41 H41            1.6693    -8.7324    -1.1947 H       
  42 H42            0.3685    -8.2459    -0.0813 H       
  43 H43            4.4819    -7.7163     0.7596 H       
  44 H44            3.8237    -8.8709    -0.4245 H       
  45 H45            4.3438    -5.4177     0.4148 H       
  46 H46            4.5160    -4.7611    -1.2306 H       
  47 H47            2.8973    -5.1003    -0.5726 H       
  48 H48            5.4451    -8.1126    -2.1473 H       
  49 H49            5.5807    -6.3840    -2.5493 H       
  50 H50            6.1487    -6.9777    -0.9703 H       
  51 H51            2.1440    -6.3049    -2.0905 H       
  52 H52            3.4024    -6.8529    -3.2238 H       
  53 H53            2.5442    -8.0354    -2.2072 H       
@<TRIPOS>BOND
   1    1    2 1
   2    1   12 1
   3    2    3 ar
   4    2    7 ar
   5    3    4 ar
   6    4    5 ar
   7    4   27 1
   8    5    6 ar
   9    5    8 1
  10    6    7 ar
  11    6   28 1
  12    7   29 1
  13    8    9 am
  14    8   10 2
  15    9   11 1
  16    9   30 1
  17   11   20 1
  18   11   21 1
  19   11   22 1
  20   12   13 1
  21   12   31 1
  22   12   32 1
  23   13   14 ar
  24   13   18 ar
  25   14   15 ar
  26   14   33 1
  27   15   16 ar
  28   15   34 1
  29   16   17 ar
  30   16   35 1
  31   17   18 ar
  32   17   19 1
  33   18   36 1
  34   20   37 1
  35   20   38 1
  36   20   39 1
  37   21   40 1
  38   21   41 1
  39   21   42 1
  40   22   23 1
  41   22   43 1
  42   22   44 1
  43   23   24 1
  44   23   25 1
  45   23   26 1
  46   24   45 1
  47   24   46 1
  48   24   47 1
  49   25   48 1
  50   25   49 1
  51   25   50 1
  52   26   51 1
  53   26   52 1
  54   26   53 1

#	End of record

