#	Name: ASD01917695
#	Creating user name:	WinNT
#	Creation time:	15. 06. 2019 20:09

#	Modifying user name:	WinNT
#	Modification time:	15. 06. 2019 20:09

#	Program:	/corina/corina34_cracker 3.40 0067  02.08.2006

@<TRIPOS>MOLECULE
ASD01917695
  47   49    0    0    0
SMALL
NO_CHARGES


@<TRIPOS>ATOM
   1 C1            -0.3247     1.2556     0.4695 C.3     
   2 C2            -0.1543    -0.2174     0.0309 C.3     
   3 C3             1.2493    -0.5746     0.4680 C.2     
   4 N4             1.9495     0.5420     0.7321 N.am    
   5 C5             1.1401     1.7451     0.5053 C.3     
   6 C6             1.5150     2.3915    -0.8298 C.3     
   7 C7             1.3380     2.7400     1.6506 C.3     
   8 C8             3.3416     0.5562     1.1882 C.3     
   9 O9             1.6799    -1.7041     0.5665 O.2     
  10 C10           -1.1627    -1.0949     0.7266 C.ar    
  11 N11           -1.2410    -1.0746     2.0436 N.ar    
  12 C12           -2.1038    -1.8210     2.7008 C.ar    
  13 C13           -2.9755    -2.6703     2.0141 C.ar    
  14 C14           -2.9153    -2.7131     0.6149 C.ar    
  15 C15           -1.9944    -1.9039    -0.0266 C.ar    
  16 C16           -3.9097    -3.4874     2.7284 C.1     
  17 C17           -4.6756    -4.1573     3.3139 C.1     
  18 C18           -5.6099    -4.9745     4.0282 C.ar    
  19 C19           -5.6624    -4.9249     5.4237 C.ar    
  20 C20           -6.5648    -5.7148     6.1048 C.ar    
  21 C21           -7.4168    -6.5549     5.4097 C.ar    
  22 C22           -7.3701    -6.6097     4.0278 C.ar    
  23 C23           -6.4773    -5.8210     3.3328 C.ar    
  24 O24           -0.2815    -0.3348    -1.3876 O.3     
  25 C25           -1.4895     0.2211    -1.9107 C.3     
  26 H26           -0.9055     1.8160    -0.2631 H       
  27 H27           -0.7811     1.3181     1.4574 H       
  28 H28            1.3604     1.6750    -1.6365 H       
  29 H29            0.8892     3.2681    -0.9974 H       
  30 H30            2.5625     2.6920    -0.8064 H       
  31 H31            2.3842     3.0431     1.6919 H       
  32 H32            0.7122     3.6166     1.4826 H       
  33 H33            1.0585     2.2693     2.5932 H       
  34 H34            3.7060    -0.4674     1.2750 H       
  35 H35            3.9540     1.1001     0.4691 H       
  36 H36            3.4006     1.0465     2.1599 H       
  37 H37           -2.1379    -1.7767     3.7793 H       
  38 H38           -3.5708    -3.3609     0.0517 H       
  39 H39           -1.9227    -1.9070    -1.1042 H       
  40 H40           -4.9978    -4.2700     5.9675 H       
  41 H41           -6.6063    -5.6779     7.1834 H       
  42 H42           -8.1213    -7.1712     5.9484 H       
  43 H43           -8.0379    -7.2680     3.4919 H       
  44 H44           -6.4422    -5.8644     2.2542 H       
  45 H45           -2.3436    -0.2065    -1.3855 H       
  46 H46           -1.4819     1.3022    -1.7722 H       
  47 H47           -1.5646    -0.0085    -2.9737 H       
@<TRIPOS>BOND
   1    1    2 1
   2    1    5 1
   3    1   26 1
   4    1   27 1
   5    2    3 1
   6    2   10 1
   7    2   24 1
   8    3    4 am
   9    3    9 2
  10    4    5 1
  11    4    8 1
  12    5    6 1
  13    5    7 1
  14    6   28 1
  15    6   29 1
  16    6   30 1
  17    7   31 1
  18    7   32 1
  19    7   33 1
  20    8   34 1
  21    8   35 1
  22    8   36 1
  23   10   11 ar
  24   10   15 ar
  25   11   12 ar
  26   12   13 ar
  27   12   37 1
  28   13   14 ar
  29   13   16 1
  30   14   15 ar
  31   14   38 1
  32   15   39 1
  33   16   17 3
  34   17   18 1
  35   18   19 ar
  36   18   23 ar
  37   19   20 ar
  38   19   40 1
  39   20   21 ar
  40   20   41 1
  41   21   22 ar
  42   21   42 1
  43   22   23 ar
  44   22   43 1
  45   23   44 1
  46   24   25 1
  47   25   45 1
  48   25   46 1
  49   25   47 1

#	End of record

