#	Name: ASD01812813
#	Creating user name:	WinNT
#	Creation time:	15. 06. 2019 19:29

#	Modifying user name:	WinNT
#	Modification time:	15. 06. 2019 19:29

#	Program:	/corina/corina34_cracker 3.40 0067  02.08.2006

@<TRIPOS>MOLECULE
ASD01812813
  52   55    0    0    0
SMALL
NO_CHARGES


@<TRIPOS>ATOM
   1 N1            -0.0158     1.3147     0.0093 N.ar    
   2 C2             0.0021    -0.0041     0.0020 C.ar    
   3 C3             1.1989    -0.7033    -0.0127 C.ar    
   4 C4             2.3829    -0.0013    -0.0202 C.ar    
   5 C5             2.3448     1.3978    -0.0128 C.ar    
   6 C6             1.0955     2.0332     0.0025 C.ar    
   7 C7             3.8373    -0.3889    -0.0363 C.3     
   8 N8             4.5955     0.8684    -0.0373 N.am    
   9 C9             3.7280     1.8961    -0.0237 C.2     
  10 C10            6.0558     0.9844    -0.0504 C.3     
  11 C11            6.5432     1.0311    -1.4757 C.ar    
  12 C12            6.6712     2.2480    -2.1207 C.ar    
  13 C13            7.1171     2.2964    -3.4260 C.ar    
  14 C14            7.4386     1.1168    -4.0938 C.ar    
  15 C15            7.3079    -0.1061    -3.4394 C.ar    
  16 C16            6.8664    -0.1427    -2.1322 C.ar    
  17 O17            1.0255     3.3856     0.0100 O.3     
  18 O18            4.0429     3.0706    -0.0212 O.2     
  19 C19            7.9183     1.1627    -5.4979 C.2     
  20 C20            8.2645     0.0998    -6.2809 C.2     
  21 N21            8.0935     2.2598    -6.2561 N.2     
  22 N22            8.5204     1.8989    -7.4144 N.2     
  23 N23            8.6313     0.6186    -7.4745 N.pl3   
  24 C24            9.0849    -0.1477    -8.6378 C.3     
  25 C25           -0.2795     3.9677     0.0251 C.3     
  26 C26           -0.1576     5.4928     0.0317 C.3     
  27 C27           -0.7137     6.2512    -1.1752 C.3     
  28 C28           -1.4479     6.3040     0.1661 C.3     
  29 H29           -0.9309    -0.5480     0.0080 H       
  30 H30            1.2023    -1.7833    -0.0178 H       
  31 H31            4.0797    -0.9721     0.8522 H       
  32 H32            4.0624    -0.9631    -0.9351 H       
  33 H33            6.3524     1.8979     0.4651 H       
  34 H34            6.4932     0.1235     0.4552 H       
  35 H35            6.4214     3.1618    -1.6021 H       
  36 H36            7.2164     3.2470    -3.9288 H       
  37 H37            7.5554    -1.0235    -3.9527 H       
  38 H38            6.7692    -1.0898    -1.6224 H       
  39 H39            8.2490    -0.9439    -6.0034 H       
  40 H40            8.2270    -0.4110    -9.2564 H       
  41 H41            9.7817     0.4549    -9.2205 H       
  42 H42            9.5835    -1.0569    -8.3020 H       
  43 H43           -0.8289     3.6509    -0.8614 H       
  44 H44           -0.8123     3.6419     0.9185 H       
  45 H45            0.7389     5.8908     0.5071 H       
  46 H46           -0.1830     7.1482    -1.4942 H       
  47 H47           -1.1664     5.6635    -1.9739 H       
  48 H48           -2.3835     5.7512     0.2499 H       
  49 H49           -1.4001     7.2359     0.7296 H       
  50 O50           14.7817    13.2028     5.9247 O.3     
  51 H51           14.7948    12.2359     5.9194 H       
  52 H52           15.6596    13.6081     5.9185 H       
@<TRIPOS>BOND
   1    1    2 ar
   2    1    6 ar
   3    2    3 ar
   4    2   29 1
   5    3    4 ar
   6    3   30 1
   7    4    7 1
   8    4    5 ar
   9    5    6 ar
  10    5    9 1
  11    6   17 1
  12    7    8 1
  13    7   31 1
  14    7   32 1
  15    8    9 am
  16    8   10 1
  17    9   18 2
  18   10   11 1
  19   10   33 1
  20   10   34 1
  21   11   12 ar
  22   11   16 ar
  23   12   13 ar
  24   12   35 1
  25   13   14 ar
  26   13   36 1
  27   14   15 ar
  28   14   19 1
  29   15   16 ar
  30   15   37 1
  31   16   38 1
  32   17   25 1
  33   19   21 1
  34   19   20 2
  35   20   23 1
  36   20   39 1
  37   21   22 2
  38   22   23 1
  39   23   24 1
  40   24   40 1
  41   24   41 1
  42   24   42 1
  43   25   26 1
  44   25   43 1
  45   25   44 1
  46   26   28 1
  47   26   27 1
  48   26   45 1
  49   27   28 1
  50   27   46 1
  51   27   47 1
  52   28   48 1
  53   28   49 1
  54   50   51 1
  55   50   52 1

#	End of record

