#	Name: ASD01918587
#	Creating user name:	WinNT
#	Creation time:	15. 06. 2019 20:11

#	Modifying user name:	WinNT
#	Modification time:	15. 06. 2019 20:11

#	Program:	/corina/corina34_cracker 3.40 0067  02.08.2006

@<TRIPOS>MOLECULE
ASD01918587
  36   38    0    0    0
SMALL
NO_CHARGES


@<TRIPOS>ATOM
   1 C1            -0.0502     1.5857    -0.1229 C.3     
   2 C2            -0.0446     0.0791    -0.1563 C.ar    
   3 C3            -0.0281    -0.5754    -1.3746 C.ar    
   4 C4            -0.0229    -1.9673    -1.4000 C.ar    
   5 O5            -0.0063    -2.6412    -2.5783 O.3     
   6 C6             0.1256    -4.0625    -2.5110 C.3     
   7 C7            -1.1892    -4.8018    -2.7701 C.3     
   8 S8            -0.9252    -4.6375    -4.5575 S.3     
   9 C9             0.7156    -4.6731    -3.7843 C.3     
  10 C10           -0.0348    -2.6513    -0.1874 C.ar    
  11 C11           -0.0512    -1.9224     0.9975 C.ar    
  12 N12           -0.0502    -0.5944     0.9744 N.ar    
  13 C13           -0.0645    -2.6338     2.2968 C.2     
  14 O14           -0.0611    -3.8487     2.3243 O.2     
  15 N15           -0.0805    -1.9337     3.4483 N.am    
  16 C16           -0.2006    -2.5996     4.6673 C.ar    
  17 C17           -0.3232    -1.8671     5.8423 C.ar    
  18 C18           -0.4418    -2.5395     7.0460 C.ar    
  19 C19           -0.4335    -3.9291     7.0324 C.ar    
  20 F20           -0.5472    -4.6242     8.1853 F       
  21 C21           -0.3079    -4.5927     5.8252 C.ar    
  22 N22           -0.2022    -3.9229     4.6937 N.ar    
  23 H23            0.9761     1.9526    -0.1077 H       
  24 H24           -0.5592     1.9669    -1.0082 H       
  25 H25           -0.5716     1.9274     0.7713 H       
  26 H26           -0.0195    -0.0127    -2.2964 H       
  27 H27            0.6315    -4.3919    -1.6035 H       
  28 H28           -1.1736    -5.8366    -2.4280 H       
  29 H29           -2.0641    -4.2576    -2.4144 H       
  30 H30            1.4362    -4.0211    -4.2780 H       
  31 H31            1.0984    -5.6830    -3.6376 H       
  32 H32           -0.0317    -3.7311    -0.1669 H       
  33 H33           -0.0084    -0.9666     3.4290 H       
  34 H34           -0.3256    -0.7874     5.8161 H       
  35 H35           -0.5382    -1.9967     7.9748 H       
  36 H36           -0.3005    -5.6726     5.8085 H       
@<TRIPOS>BOND
   1    1    2 1
   2    1   23 1
   3    1   24 1
   4    1   25 1
   5    2   12 ar
   6    2    3 ar
   7    3    4 ar
   8    3   26 1
   9    4    5 1
  10    4   10 ar
  11    5    6 1
  12    6    9 1
  13    6    7 1
  14    6   27 1
  15    7    8 1
  16    7   28 1
  17    7   29 1
  18    8    9 1
  19    9   30 1
  20    9   31 1
  21   10   11 ar
  22   10   32 1
  23   11   12 ar
  24   11   13 1
  25   13   14 2
  26   13   15 am
  27   15   16 1
  28   15   33 1
  29   16   22 ar
  30   16   17 ar
  31   17   18 ar
  32   17   34 1
  33   18   19 ar
  34   18   35 1
  35   19   20 1
  36   19   21 ar
  37   21   22 ar
  38   21   36 1

#	End of record

