#	Name: ASD00110040
#	Creating user name:	WinNT
#	Creation time:	15. 06. 2019 18:30

#	Modifying user name:	WinNT
#	Modification time:	15. 06. 2019 18:30

#	Program:	/corina/corina34_cracker 3.40 0067  02.08.2006

@<TRIPOS>MOLECULE
ASD00110040
  52   54    0    0    0
SMALL
NO_CHARGES


@<TRIPOS>ATOM
   1 C1            -0.0187     1.5270     0.0104 C.3     
   2 C2            -1.4347    -0.5286    -0.0486 C.3     
   3 C3            -1.4185    -2.0352    -0.0770 C.2     
   4 N4            -1.2400    -2.7289     1.0647 N.am    
   5 O5            -1.5661    -2.6236    -1.1272 O.2     
   6 C6            -1.2243    -4.1935     1.0371 C.3     
   7 C7             0.1841    -4.6820     0.6927 C.3     
   8 O8             1.0851    -4.3139     1.7390 O.3     
   9 C9            -1.6300    -4.7339     2.4098 C.3     
  10 O10           -0.7089    -4.2661     3.3971 O.3     
  11 C11            1.3946     2.0499    -0.0002 C.ar    
  12 N12           -2.0992    -0.0236    -1.2568 N.3     
  13 C13           -2.1732     1.4430    -1.2485 C.3     
  14 C14           -0.7585     2.0264    -1.2337 C.3     
  15 C15            0.0021    -0.0041     0.0020 C.3     
  16 C16           -3.0173    -4.2527     2.7491 C.ar    
  17 C17           -5.5622    -3.3703     3.3720 C.ar    
  18 C18           -4.4782    -2.5294     3.5417 C.ar    
  19 C19           -3.2057    -2.9707     3.2305 C.ar    
  20 C20           -4.1019    -5.0915     2.5735 C.ar    
  21 C21           -5.3744    -4.6502     2.8848 C.ar    
  22 C22            2.2389     1.7385    -1.0497 C.ar    
  23 C23            3.5353     2.2182    -1.0595 C.ar    
  24 C24            3.9874     3.0095    -0.0201 C.ar    
  25 C25            3.1429     3.3216     1.0289 C.ar    
  26 C26            1.8451     2.8455     1.0365 C.ar    
  27 H27           -0.5307     1.8794     0.9058 H       
  28 H28           -1.9769    -0.1878     0.8335 H       
  29 H29           -1.1220    -2.2583     1.9047 H       
  30 H30           -1.9269    -4.5503     0.2840 H       
  31 H31            0.1763    -5.7666     0.5848 H       
  32 H32            0.5081    -4.2262    -0.2429 H       
  33 H33            1.9987    -4.5922     1.5873 H       
  34 H34           -1.6183    -5.8236     2.3893 H       
  35 H35           -0.6667    -3.3029     3.4707 H       
  36 H36           -1.6379    -0.3576    -2.0897 H       
  37 H37           -2.6979     1.7852    -2.1405 H       
  38 H38           -2.7120     1.7744    -0.3608 H       
  39 H39           -0.8139     3.1148    -1.2117 H       
  40 H40           -0.2236     1.7066    -2.1280 H       
  41 H41            0.5489    -0.3558    -0.8728 H       
  42 H42            0.4901    -0.3664     0.9068 H       
  43 H43           -6.5564    -3.0255     3.6151 H       
  44 H44           -4.6249    -1.5294     3.9223 H       
  45 H45           -2.3587    -2.3140     3.3638 H       
  46 H46           -3.9552    -6.0915     2.1929 H       
  47 H47           -6.2213    -5.3072     2.7522 H       
  48 H48            1.8857     1.1203    -1.8617 H       
  49 H49            4.1951     1.9743    -1.8790 H       
  50 H50            5.0005     3.3837    -0.0274 H       
  51 H51            3.4962     3.9396     1.8411 H       
  52 H52            1.1841     3.0924     1.8542 H       
@<TRIPOS>BOND
   1    1   15 1
   2    1   11 1
   3    1   14 1
   4    1   27 1
   5    2    3 1
   6    2   12 1
   7    2   15 1
   8    2   28 1
   9    3    4 am
  10    3    5 2
  11    4    6 1
  12    4   29 1
  13    6    7 1
  14    6    9 1
  15    6   30 1
  16    7    8 1
  17    7   31 1
  18    7   32 1
  19    8   33 1
  20    9   10 1
  21    9   16 1
  22    9   34 1
  23   10   35 1
  24   11   26 ar
  25   11   22 ar
  26   12   13 1
  27   12   36 1
  28   13   14 1
  29   13   37 1
  30   13   38 1
  31   14   39 1
  32   14   40 1
  33   15   41 1
  34   15   42 1
  35   16   20 ar
  36   16   19 ar
  37   17   18 ar
  38   17   21 ar
  39   17   43 1
  40   18   19 ar
  41   18   44 1
  42   19   45 1
  43   20   21 ar
  44   20   46 1
  45   21   47 1
  46   22   23 ar
  47   22   48 1
  48   23   24 ar
  49   23   49 1
  50   24   25 ar
  51   24   50 1
  52   25   26 ar
  53   25   51 1
  54   26   52 1

#	End of record

