#	Name: ASD03320055
#	Creating user name:	WinNT
#	Creation time:	15. 06. 2019 20:36

#	Modifying user name:	WinNT
#	Modification time:	15. 06. 2019 20:36

#	Program:	/corina/corina34_cracker 3.40 0067  02.08.2006

@<TRIPOS>MOLECULE
ASD03320055
  51   54    0    0    0
SMALL
NO_CHARGES


@<TRIPOS>ATOM
   1 N1            -0.1495     1.3696     0.0735 N.3     
   2 C2             0.0853    -0.0770    -0.0884 C.3     
   3 C3             1.6112    -0.3011    -0.0360 C.3     
   4 C4             2.1230     0.9533     0.7197 C.3     
   5 C5             1.1583     2.0477     0.1988 C.3     
   6 C6             1.9394    -1.5561     0.7311 C.2     
   7 O7             1.0509    -2.2261     1.2019 O.2     
   8 O8             3.2187    -1.9296     0.8912 O.3     
   9 C9            -0.8706     1.8769    -0.9915 C.ar    
  10 C10           -1.1971     3.2442    -1.0220 C.ar    
  11 C11           -1.9235     3.7402    -2.1009 C.ar    
  12 C12           -2.2987     2.8479    -3.1141 C.ar    
  13 C13           -1.9341     1.5042    -3.0071 C.ar    
  14 N14           -1.2417     1.0706    -1.9746 N.ar    
  15 N15           -0.7789     3.8468     1.4063 N.pl3   
  16 N16           -0.3054     4.9719     2.0934 N.2     
  17 C17           -0.0277     5.9061     1.2199 C.2     
  18 C18           -0.3106     5.4199    -0.0567 C.2     
  19 C19           -0.7756     4.1416     0.0755 C.2     
  20 C20           -3.0699     3.3221    -4.2792 C.2     
  21 N21           -3.4264     2.4566    -5.2489 N.am    
  22 O22           -3.3838     4.4938    -4.3645 O.2     
  23 C23           -4.2408     2.8846    -6.3047 C.ar    
  24 C24           -4.1052     4.1712    -6.8092 C.ar    
  25 C25           -4.9083     4.5924    -7.8505 C.ar    
  26 C26           -5.8504     3.7305    -8.3927 C.ar    
  27 C27           -5.9868     2.4452    -7.8890 C.ar    
  28 C28           -5.1805     2.0207    -6.8515 C.ar    
  29 O29           -6.6408     4.1459    -9.4182 O.3     
  30 C30           -7.5892     3.2064    -9.9279 C.3     
  31 F31           -6.9161     2.0770   -10.4059 F       
  32 F32           -8.4668     2.8285    -8.9061 F       
  33 Cl33          -8.5223     3.9636   -11.2721 Cl      
  34 H34           -0.3979    -0.6240     0.7211 H       
  35 H35           -0.3057    -0.4108    -1.0496 H       
  36 H36            2.0294    -0.3425    -1.0418 H       
  37 H37            2.0244     0.8269     1.7978 H       
  38 H38            3.1539     1.1797     0.4473 H       
  39 H39            1.4899     2.4149    -0.7724 H       
  40 H40            1.0935     2.8680     0.9137 H       
  41 H41            3.3796    -2.7419     1.3907 H       
  42 H42           -2.1912     4.7851    -2.1554 H       
  43 H43           -2.2206     0.8115    -3.7846 H       
  44 H44           -1.0555     3.0072     1.8055 H       
  45 H45            0.3558     6.8894     1.4491 H       
  46 H46           -0.1852     5.9583    -0.9846 H       
  47 H47           -3.1189     1.5372    -5.2155 H       
  48 H48           -3.3720     4.8424    -6.3869 H       
  49 H49           -4.8031     5.5931    -8.2427 H       
  50 H50           -6.7207     1.7749    -8.3114 H       
  51 H51           -5.2835     1.0184    -6.4626 H       
@<TRIPOS>BOND
   1    1    2 1
   2    1    5 1
   3    1    9 1
   4    2    3 1
   5    2   34 1
   6    2   35 1
   7    3    4 1
   8    3    6 1
   9    3   36 1
  10    4    5 1
  11    4   37 1
  12    4   38 1
  13    5   39 1
  14    5   40 1
  15    6    7 2
  16    6    8 1
  17    8   41 1
  18    9   10 ar
  19    9   14 ar
  20   10   11 ar
  21   10   19 1
  22   11   12 ar
  23   11   42 1
  24   12   13 ar
  25   12   20 1
  26   13   14 ar
  27   13   43 1
  28   15   16 1
  29   15   19 1
  30   15   44 1
  31   16   17 2
  32   17   18 1
  33   17   45 1
  34   18   19 2
  35   18   46 1
  36   20   21 am
  37   20   22 2
  38   21   23 1
  39   21   47 1
  40   23   24 ar
  41   23   28 ar
  42   24   25 ar
  43   24   48 1
  44   25   26 ar
  45   25   49 1
  46   26   27 ar
  47   26   29 1
  48   27   28 ar
  49   27   50 1
  50   28   51 1
  51   29   30 1
  52   30   31 1
  53   30   32 1
  54   30   33 1

#	End of record

