#	Name: ASD01903170
#	Creating user name:	WinNT
#	Creation time:	15. 06. 2019 19:54

#	Modifying user name:	WinNT
#	Modification time:	15. 06. 2019 19:54

#	Program:	/corina/corina34_cracker 3.40 0067  02.08.2006

@<TRIPOS>MOLECULE
ASD01903170
  49   52    0    0    0
SMALL
NO_CHARGES


@<TRIPOS>ATOM
   1 C1             1.7354    -1.7059     2.0627 C.ar    
   2 C2             0.7268    -1.1748     1.2743 C.ar    
   3 C3             1.0007    -0.0838     0.4645 C.ar    
   4 N4             2.2015     0.4512     0.4356 N.ar    
   5 C5             3.1950    -0.0270     1.1750 C.ar    
   6 C6             2.9914    -1.1215     2.0120 C.ar    
   7 C7             4.5313     0.6088     1.1093 C.2     
   8 N8             4.7346     1.6682     0.3013 N.am    
   9 O9             5.4444     0.1752     1.7840 O.2     
  10 C10            5.9676     2.3276     0.3099 C.ar    
  11 C11            7.1414     1.6064     0.4868 C.ar    
  12 C12            8.3576     2.2608     0.4948 C.ar    
  13 C13            8.4075     3.6325     0.3269 C.ar    
  14 C14            7.2407     4.3536     0.1510 C.ar    
  15 C15            6.0217     3.7046     0.1358 C.ar    
  16 S16            9.9612     4.4635     0.3378 S.o2    
  17 O17            9.6929     5.8112     0.6996 O.2     
  18 O18           10.8575     3.6290     1.0585 O.2     
  19 N19           10.5091     4.4989    -1.2245 N.am    
  20 C20            9.7593     5.1436    -2.2144 C.ar    
  21 C21            9.7192     4.6269    -3.5090 C.ar    
  22 C22            8.9739     5.2703    -4.4852 C.ar    
  23 C23            8.2735     6.4209    -4.1740 C.ar    
  24 C24            8.3135     6.9336    -2.8904 C.ar    
  25 C25            9.0490     6.2953    -1.9094 C.ar    
  26 N26           10.4310     3.4603    -3.8227 N.am    
  27 C27           11.8188     3.4094    -4.3074 C.3     
  28 C28           12.0896     1.9032    -4.4875 C.3     
  29 O29           10.8392     1.2699    -4.0897 O.3     
  30 C30            9.9597     2.2098    -3.7245 C.2     
  31 O31            8.8335     1.9532    -3.3469 O.2     
  32 H32            1.5459    -2.5529     2.7053 H       
  33 H33           -0.2627    -1.6071     1.2905 H       
  34 H34            0.2172     0.3323    -0.1514 H       
  35 H35            3.8007    -1.5097     2.6126 H       
  36 H36            4.0255     1.9732    -0.2861 H       
  37 H37            7.1030     0.5351     0.6183 H       
  38 H38            9.2706     1.7006     0.6327 H       
  39 H39            7.2831     5.4248     0.0205 H       
  40 H40            5.1108     4.2683    -0.0016 H       
  41 H41           11.3499     4.0727    -1.4534 H       
  42 H42            8.9407     4.8728    -5.4888 H       
  43 H43            7.6938     6.9209    -4.9357 H       
  44 H44            7.7651     7.8332    -2.6527 H       
  45 H45            9.0777     6.6983    -0.9078 H       
  46 H46           11.9113     3.9316    -5.2596 H       
  47 H47           12.4982     3.8349    -3.5687 H       
  48 H48           12.3176     1.6779    -5.5293 H       
  49 H49           12.9043     1.5812    -3.8388 H       
@<TRIPOS>BOND
   1    1    2 ar
   2    1    6 ar
   3    1   32 1
   4    2    3 ar
   5    2   33 1
   6    3    4 ar
   7    3   34 1
   8    4    5 ar
   9    5    6 ar
  10    5    7 1
  11    6   35 1
  12    7    8 am
  13    7    9 2
  14    8   10 1
  15    8   36 1
  16   10   11 ar
  17   10   15 ar
  18   11   12 ar
  19   11   37 1
  20   12   13 ar
  21   12   38 1
  22   13   14 ar
  23   13   16 1
  24   14   15 ar
  25   14   39 1
  26   15   40 1
  27   16   17 2
  28   16   18 2
  29   16   19 am
  30   19   20 1
  31   19   41 1
  32   20   21 ar
  33   20   25 ar
  34   21   22 ar
  35   21   26 1
  36   22   23 ar
  37   22   42 1
  38   23   24 ar
  39   23   43 1
  40   24   25 ar
  41   24   44 1
  42   25   45 1
  43   26   27 1
  44   26   30 am
  45   27   28 1
  46   27   46 1
  47   27   47 1
  48   28   29 1
  49   28   48 1
  50   28   49 1
  51   29   30 1
  52   30   31 2

#	End of record

