#	Name: ASD06170414
#	Creating user name:	WinNT
#	Creation time:	15. 06. 2019 21:05

#	Modifying user name:	WinNT
#	Modification time:	15. 06. 2019 21:05

#	Program:	/corina/corina34_cracker 3.40 0067  02.08.2006

@<TRIPOS>MOLECULE
ASD06170414
  52   55    0    0    0
SMALL
NO_CHARGES


@<TRIPOS>ATOM
   1 C1            -0.0195     1.3706     0.0176 C.ar    
   2 C2             0.0013    -0.0130     0.0197 C.ar    
   3 C3             1.1632     2.0897     0.0009 C.ar    
   4 C4             2.3709     1.4262    -0.0142 C.ar    
   5 C5             2.3977     0.0304    -0.0024 C.ar    
   6 C6             1.2052    -0.6892     0.0095 C.ar    
   7 C7             3.6699     2.1861    -0.0587 C.3     
   8 C8             4.7370     1.4254     0.7561 C.3     
   9 N9             4.8268     0.0575     0.2589 N.am    
  10 C10            3.7048    -0.6556     0.0108 C.2     
  11 C11            4.1187     2.3250    -1.4877 C.2     
  12 O12            5.1806     1.8648    -1.8348 O.2     
  13 O13            3.3396     2.9602    -2.3771 O.3     
  14 C14            6.1110    -0.5932    -0.0129 C.3     
  15 C15            6.2949    -1.7764     0.9394 C.3     
  16 C16            7.6360    -2.4559     0.6555 C.3     
  17 C17            7.6582    -2.9565    -0.7901 C.3     
  18 C18            7.4743    -1.7733    -1.7425 C.3     
  19 C19            6.1331    -1.0938    -1.4586 C.3     
  20 C20            6.0448     2.1882     0.6543 C.3     
  21 C21            7.0755     1.8479     1.7186 C.3     
  22 C22            5.2896     0.9008     3.1616 C.3     
  23 C23            6.4690     1.8761     3.1195 C.3     
  24 C24            4.2162     1.4000     2.2002 C.3     
  25 O25            3.7790    -1.8499    -0.1989 O.2     
  26 H26           -0.9646     1.8931     0.0246 H       
  27 H27           -0.9266    -0.5655     0.0288 H       
  28 H28            1.1388     3.1694    -0.0006 H       
  29 H29            1.2209    -1.7690     0.0122 H       
  30 H30            3.5325     3.1715     0.3824 H       
  31 H31            3.6704     3.0244    -3.2835 H       
  32 H32            6.9196     0.1224     0.1362 H       
  33 H33            6.2791    -1.4198     1.9693 H       
  34 H34            5.4863    -2.4920     0.7903 H       
  35 H35            8.4446    -1.7404     0.8047 H       
  36 H36            7.7671    -3.2989     1.3340 H       
  37 H37            8.6136    -3.4406    -0.9923 H       
  38 H38            6.8496    -3.6721    -0.9392 H       
  39 H39            8.2829    -1.0577    -1.5933 H       
  40 H40            7.4900    -2.1299    -2.7723 H       
  41 H41            5.3245    -1.8093    -1.6077 H       
  42 H42            6.0021    -0.2508    -2.1370 H       
  43 H43            6.4999     2.0410    -0.3335 H       
  44 H44            5.8255     3.2691     0.7289 H       
  45 H45            7.5306     0.8771     1.5369 H       
  46 H46            7.8818     2.5970     1.6785 H       
  47 H47            5.6239    -0.0922     2.8688 H       
  48 H48            4.8874     0.8651     4.1748 H       
  49 H49            7.2174     1.5725     3.8508 H       
  50 H50            6.1185     2.8812     3.3496 H       
  51 H51            3.9149     2.4110     2.4856 H       
  52 H52            3.3449     0.7448     2.2563 H       
@<TRIPOS>BOND
   1    1    2 ar
   2    1    3 ar
   3    1   26 1
   4    2    6 ar
   5    2   27 1
   6    3    4 ar
   7    3   28 1
   8    4    5 ar
   9    4    7 1
  10    5    6 ar
  11    5   10 1
  12    6   29 1
  13    7    8 1
  14    7   11 1
  15    7   30 1
  16    8    9 1
  17    8   20 1
  18    8   24 1
  19    9   10 am
  20    9   14 1
  21   10   25 2
  22   11   12 2
  23   11   13 1
  24   13   31 1
  25   14   15 1
  26   14   19 1
  27   14   32 1
  28   15   16 1
  29   15   33 1
  30   15   34 1
  31   16   17 1
  32   16   35 1
  33   16   36 1
  34   17   18 1
  35   17   37 1
  36   17   38 1
  37   18   19 1
  38   18   39 1
  39   18   40 1
  40   19   41 1
  41   19   42 1
  42   20   21 1
  43   20   43 1
  44   20   44 1
  45   21   23 1
  46   21   45 1
  47   21   46 1
  48   22   24 1
  49   22   23 1
  50   22   47 1
  51   22   48 1
  52   23   49 1
  53   23   50 1
  54   24   51 1
  55   24   52 1

#	End of record

