#	Name: ASD01410209
#	Creating user name:	WinNT
#	Creation time:	15. 06. 2019 19:16

#	Modifying user name:	WinNT
#	Modification time:	15. 06. 2019 19:16

#	Program:	/corina/corina34_cracker 3.40 0067  02.08.2006

@<TRIPOS>MOLECULE
ASD01410209
  41   43    0    0    0
SMALL
NO_CHARGES


@<TRIPOS>ATOM
   1 C1            -0.0163     1.3475     0.0095 C.2     
   2 C2             0.0021    -0.0041     0.0020 C.2     
   3 C3            -1.3321    -0.4376     0.0133 C.2     
   4 C4            -2.1146     0.7003     0.0274 C.2     
   5 O5            -1.2891     1.7679     0.0297 O.3     
   6 C6            -4.1759     1.9388     0.0546 C.2     
   7 S7            -3.4708     3.5687     0.0561 S.3     
   8 C8            -5.0402     4.3930     0.0687 C.2     
   9 N9            -5.9628     3.4599     0.0710 N.2     
  10 C10           -5.6233     2.1888     0.0644 C.2     
  11 C11           -3.5274     0.7396     0.0415 C.2     
  12 O12           -6.4473     1.2871     0.0659 O.2     
  13 N13           -5.2500     5.7478     0.0749 N.pl3   
  14 C14           -6.6159     6.2774     0.0851 C.3     
  15 C15           -5.5938     8.5411     0.3948 C.ar    
  16 C16           -5.5926     9.8069     0.9498 C.ar    
  17 C17           -6.6134    10.1895     1.8013 C.ar    
  18 C18           -7.6350     9.3050     2.0970 C.ar    
  19 C19           -7.6351     8.0392     1.5418 C.ar    
  20 C20           -6.6150     7.6574     0.6905 C.ar    
  21 C21            1.1990     2.2387     0.0026 C.3     
  22 C22            1.5965     2.5480    -1.4421 C.3     
  23 Br23          -6.6120    11.9210     2.5614 Br      
  24 C24           -7.1377     6.3486    -1.3269 C.2     
  25 O25           -6.4402     5.9934    -2.2473 O.2     
  26 O26           -8.3773     6.8066    -1.5620 O.3     
  27 H27            0.8800    -0.6329    -0.0108 H       
  28 H28           -1.6791    -1.4603     0.0108 H       
  29 H29           -4.0933    -0.1803     0.0420 H       
  30 H30           -4.4941     6.3556     0.0724 H       
  31 H31           -7.2554     5.6218     0.6762 H       
  32 H32           -4.7992     8.2438    -0.2735 H       
  33 H33           -4.7946    10.4971     0.7190 H       
  34 H34           -8.4320     9.6032     2.7620 H       
  35 H35           -8.4325     7.3484     1.7729 H       
  36 H36            0.9707     3.1685     0.5237 H       
  37 H37            2.0231     1.7331     0.5059 H       
  38 H38            1.8248     1.6182    -1.9631 H       
  39 H39            0.7724     3.0536    -1.9454 H       
  40 H40            2.4755     3.1926    -1.4470 H       
  41 H41           -8.6678     6.8337    -2.4839 H       
@<TRIPOS>BOND
   1    1    2 2
   2    1   21 1
   3    1    5 1
   4    2    3 1
   5    2   27 1
   6    3    4 2
   7    3   28 1
   8    4    5 1
   9    4   11 1
  10    6    7 1
  11    6   10 1
  12    6   11 2
  13    7    8 1
  14    8    9 2
  15    8   13 1
  16    9   10 1
  17   10   12 2
  18   11   29 1
  19   13   14 1
  20   13   30 1
  21   14   20 1
  22   14   24 1
  23   14   31 1
  24   15   16 ar
  25   15   20 ar
  26   15   32 1
  27   16   17 ar
  28   16   33 1
  29   17   18 ar
  30   17   23 1
  31   18   19 ar
  32   18   34 1
  33   19   20 ar
  34   19   35 1
  35   21   22 1
  36   21   36 1
  37   21   37 1
  38   22   38 1
  39   22   39 1
  40   22   40 1
  41   24   25 2
  42   24   26 1
  43   26   41 1

#	End of record

