#	Name: ASD01830012
#	Creating user name:	WinNT
#	Creation time:	15. 06. 2019 19:36

#	Modifying user name:	WinNT
#	Modification time:	15. 06. 2019 19:36

#	Program:	/corina/corina34_cracker 3.40 0067  02.08.2006

@<TRIPOS>MOLECULE
ASD01830012
  67   74    0    0    0
SMALL
NO_CHARGES


@<TRIPOS>ATOM
   1 N1            -0.3418     1.0380     0.4055 N.am    
   2 C2            -0.4207    -0.3056     0.4877 C.2     
   3 C3            -1.6779    -0.9613     0.9832 C.3     
   4 C4            -2.5491    -0.0746     1.8709 C.3     
   5 C5            -2.0650     1.3511     1.9031 C.3     
   6 C6            -1.6067     1.8264     0.5350 C.3     
   7 C7            -2.8924     2.3604     2.6438 C.3     
   8 C8            -2.0044     3.5988     2.8624 C.3     
   9 C9            -1.7334     4.2132     1.5052 C.3     
  10 C10           -1.1823     3.2767     0.4537 C.3     
  11 C11            0.7282     1.8988     0.3628 C.ar    
  12 C12            0.3206     3.2371     0.4133 C.ar    
  13 C13            1.2245     4.2823     0.4116 C.ar    
  14 C14            2.5731     3.9558     0.3420 C.ar    
  15 C15            2.9889     2.6416     0.2760 C.ar    
  16 C16            2.0914     1.5878     0.2847 C.ar    
  17 O17            0.5272    -0.9874     0.1598 O.2     
  18 N18           -2.9422     4.8362     0.9520 N.4     
  19 C19           -4.0868     2.7728     1.8254 C.2     
  20 C20           -4.1465     4.0318     1.0400 C.3     
  21 C21           -1.6504     3.9059    -0.8854 C.3     
  22 O22           -3.9023    -0.1543     1.4100 O.3     
  23 C23           -5.0570     1.8953     1.7093 C.2     
  24 C24           -4.8660     0.5010     2.2397 C.3     
  25 H25           -1.1421     1.3028     2.4810 H       
  26 H26           -3.2080     1.9524     3.6040 H       
  27 H27           -2.5186    -0.4706     2.8860 H       
  28 H28           -2.3272     1.5655    -0.2403 H       
  29 H29           -1.0043     5.0111     1.6460 H       
  30 C30           -2.6643     4.9960    -0.5034 C.3     
  31 C31           -3.1650     6.1443     1.5823 C.3     
  32 C32           -4.4144     6.7930     0.9830 C.3     
  33 C33           -4.8717     7.9445     1.8807 C.3     
  34 C34           -6.1211     8.5932     1.2814 C.3     
  35 C35           -5.7969     9.1317    -0.1135 C.3     
  36 C36           -5.3396     7.9803    -1.0112 C.3     
  37 C37           -4.0902     7.3315    -0.4119 C.3     
  38 H38           -2.2678    -1.2726     0.1211 H       
  39 H39           -1.4031    -1.8519     1.5484 H       
  40 H40           -2.5223     4.3179     3.4971 H       
  41 H41           -1.0647     3.3025     3.3285 H       
  42 H42            0.8963     5.3100     0.4619 H       
  43 H43            3.3099     4.7454     0.3391 H       
  44 H44            4.0460     2.4290     0.2163 H       
  45 H45            2.4300     0.5636     0.2324 H       
  46 H46           -4.9313     4.6544     1.4696 H       
  47 H47           -4.4501     3.7760     0.0248 H       
  48 H48           -0.8031     4.3475    -1.4099 H       
  49 H49           -2.1277     3.1504    -1.5094 H       
  50 H50           -5.9868     2.1733     1.2353 H       
  51 H51           -5.8117    -0.0399     2.2049 H       
  52 H52           -4.5017     0.5433     3.2661 H       
  53 H53           -3.5836     4.8665    -1.0746 H       
  54 H54           -2.2415     5.9820    -0.6959 H       
  55 H55           -3.3036     6.0117     2.6553 H       
  56 H56           -2.3017     6.7853     1.4039 H       
  57 H57           -5.2097     6.0511     0.9103 H       
  58 H58           -5.1026     7.5608     2.8745 H       
  59 H59           -4.0764     8.6863     1.9534 H       
  60 H60           -6.9163     7.8513     1.2087 H       
  61 H61           -6.4468     9.4135     1.9210 H       
  62 H62           -6.6870     9.5939    -0.5404 H       
  63 H63           -5.0016     9.8736    -0.0407 H       
  64 H64           -6.1349     7.2384    -1.0839 H       
  65 H65           -5.1087     8.3639    -2.0049 H       
  66 H66           -3.2950     8.0734    -0.3392 H       
  67 H67           -3.7645     6.5112    -1.0514 H       
@<TRIPOS>BOND
   1    1    2 am
   2    1   11 1
   3    1    6 1
   4    2    3 1
   5    2   17 2
   6    3    4 1
   7    3   38 1
   8    3   39 1
   9    4    5 1
  10    4   22 1
  11    4   27 1
  12    5    6 1
  13    5   25 1
  14    5    7 1
  15    6   10 1
  16    6   28 1
  17    7    8 1
  18    7   19 1
  19    7   26 1
  20    8    9 1
  21    8   40 1
  22    8   41 1
  23    9   10 1
  24    9   18 1
  25    9   29 1
  26   10   21 1
  27   10   12 1
  28   11   12 ar
  29   11   16 ar
  30   12   13 ar
  31   13   14 ar
  32   13   42 1
  33   14   15 ar
  34   14   43 1
  35   15   16 ar
  36   15   44 1
  37   16   45 1
  38   18   20 1
  39   18   30 1
  40   18   31 1
  41   19   23 2
  42   19   20 1
  43   20   46 1
  44   20   47 1
  45   21   30 1
  46   21   48 1
  47   21   49 1
  48   22   24 1
  49   23   24 1
  50   23   50 1
  51   24   51 1
  52   24   52 1
  53   30   53 1
  54   30   54 1
  55   31   32 1
  56   31   55 1
  57   31   56 1
  58   32   33 1
  59   32   37 1
  60   32   57 1
  61   33   34 1
  62   33   58 1
  63   33   59 1
  64   34   35 1
  65   34   60 1
  66   34   61 1
  67   35   36 1
  68   35   62 1
  69   35   63 1
  70   36   37 1
  71   36   64 1
  72   36   65 1
  73   37   66 1
  74   37   67 1

#	End of record

