#	Name: ASD01810462
#	Creating user name:	WinNT
#	Creation time:	15. 06. 2019 19:24

#	Modifying user name:	WinNT
#	Modification time:	15. 06. 2019 19:24

#	Program:	/corina/corina34_cracker 3.40 0067  02.08.2006

@<TRIPOS>MOLECULE
ASD01810462
  42   45    0    0    0
SMALL
NO_CHARGES


@<TRIPOS>ATOM
   1 C1             1.9140     1.1971    -0.7860 C.ar    
   2 C2             2.6316     0.2409    -0.0768 C.ar    
   3 N3             0.9894     2.0400    -0.1611 N.3     
   4 C4             1.2137     2.1300     1.2864 C.3     
   5 C5             1.3257     0.7091     1.8539 C.3     
   6 O6             2.4755     0.0903     1.2673 O.3     
   7 C7             1.4872     0.7692     3.3510 C.2     
   8 C8             0.9914     3.3731    -0.7780 C.3     
   9 C9            -0.0932     4.2155    -0.1575 C.ar    
  10 O10            2.5114     0.3849     3.8641 O.2     
  11 O11            0.4933     1.2498     4.1145 O.3     
  12 C12            0.2100     5.0731     0.8839 C.ar    
  13 C13           -0.7821     5.8461     1.4549 C.ar    
  14 C14           -2.0847     5.7616     0.9820 C.ar    
  15 C15           -2.3859     4.8999    -0.0641 C.ar    
  16 C16           -1.3886     4.1333    -0.6345 C.ar    
  17 N17           -3.0938     6.5445     1.5598 N.pl3   
  18 C18            3.5331    -0.5790    -0.7399 C.ar    
  19 C19            3.7220    -0.4458    -2.1026 C.ar    
  20 C20            3.0123     0.5066    -2.8094 C.ar    
  21 C21            2.1095     1.3234    -2.1574 C.ar    
  22 C22           -4.3963     6.5587     1.1967 C.2     
  23 C23           -5.0368     7.4436     1.9953 C.2     
  24 C24           -4.0958     7.9888     2.8758 C.2     
  25 N25           -2.9326     7.4463     2.6197 N.2     
  26 H26            2.1374     2.6753     1.4803 H       
  27 H27            0.3759     2.6462     1.7551 H       
  28 H28            0.4313     0.1396     1.6014 H       
  29 H29            1.9588     3.8479    -0.6140 H       
  30 H30            0.8101     3.2783    -1.8487 H       
  31 H31            0.6432     1.2686     5.0696 H       
  32 H32            1.2234     5.1384     1.2514 H       
  33 H33           -0.5448     6.5153     2.2688 H       
  34 H34           -3.3983     4.8318    -0.4339 H       
  35 H35           -1.6223     3.4628    -1.4482 H       
  36 H36            4.0892    -1.3235    -0.1895 H       
  37 H37            4.4248    -1.0858    -2.6152 H       
  38 H38            3.1620     0.6104    -3.8739 H       
  39 H39            1.5567     2.0661    -2.7135 H       
  40 H40           -4.8447     5.9700     0.4101 H       
  41 H41           -6.0885     7.6863     1.9594 H       
  42 H42           -4.2959     8.7268     3.6385 H       
@<TRIPOS>BOND
   1    1    2 ar
   2    1    3 1
   3    1   21 ar
   4    2   18 ar
   5    2    6 1
   6    3    4 1
   7    3    8 1
   8    4    5 1
   9    4   26 1
  10    4   27 1
  11    5    6 1
  12    5    7 1
  13    5   28 1
  14    7   10 2
  15    7   11 1
  16    8    9 1
  17    8   29 1
  18    8   30 1
  19    9   12 ar
  20    9   16 ar
  21   11   31 1
  22   12   13 ar
  23   12   32 1
  24   13   14 ar
  25   13   33 1
  26   14   15 ar
  27   14   17 1
  28   15   16 ar
  29   15   34 1
  30   16   35 1
  31   17   22 1
  32   17   25 1
  33   18   19 ar
  34   18   36 1
  35   19   20 ar
  36   19   37 1
  37   20   21 ar
  38   20   38 1
  39   21   39 1
  40   22   23 2
  41   22   40 1
  42   23   24 1
  43   23   41 1
  44   24   25 2
  45   24   42 1

#	End of record

