#	Name: ASD01911515
#	Creating user name:	WinNT
#	Creation time:	15. 06. 2019 19:57

#	Modifying user name:	WinNT
#	Modification time:	15. 06. 2019 19:57

#	Program:	/corina/corina34_cracker 3.40 0067  02.08.2006

@<TRIPOS>MOLECULE
ASD01911515
  35   36    0    0    0
SMALL
NO_CHARGES


@<TRIPOS>ATOM
   1 C1            -0.0161     1.3353     0.0094 C.2     
   2 N2             0.0021    -0.0041     0.0020 N.am    
   3 C3             1.3973    -0.4682    -0.0138 C.3     
   4 C4             2.2200     0.8349    -0.0147 C.3     
   5 N5             1.2009     1.8949     0.0008 N.am    
   6 O6            -1.0441     1.9842     0.0179 O.2     
   7 C7             1.7024    -1.2951     1.2368 C.3     
   8 C8             1.6784    -1.2816    -1.2788 C.3     
   9 C9            -1.1803    -0.8691     0.0087 C.3     
  10 C10           -2.0061    -0.5944     1.2670 C.3     
  11 C11           -2.0293    -0.5819    -1.2313 C.3     
  12 C12            1.4592     3.2598     0.0056 C.ar    
  13 N13            0.4437     4.1094     0.0204 N.ar    
  14 C14            0.6542     5.4152     0.0258 C.ar    
  15 C15            1.9570     5.8900     0.0159 C.ar    
  16 C16            2.9962     4.9721     0.0005 C.ar    
  17 N17            2.7150     3.6796     0.0009 N.ar    
  18 I18            2.3466     7.9484     0.0233 I       
  19 H19            2.8458     0.8928     0.8759 H       
  20 H20            2.8287     0.9025    -0.9163 H       
  21 H21            1.0419    -2.1615     1.2696 H       
  22 H22            2.7394    -1.6297     1.2071 H       
  23 H23            1.5434    -0.6832     2.1247 H       
  24 H24            1.5025    -0.6602    -2.1569 H       
  25 H25            2.7157    -1.6164    -1.2725 H       
  26 H26            1.0173    -2.1477    -1.3083 H       
  27 H27           -0.8668    -1.9130     0.0005 H       
  28 H28           -2.8858    -1.2380     1.2720 H       
  29 H29           -1.4012    -0.7990     2.1504 H       
  30 H30           -2.3196     0.4495     1.2752 H       
  31 H31           -1.4410    -0.7775    -2.1278 H       
  32 H32           -2.9090    -1.2255    -1.2264 H       
  33 H33           -2.3428     0.4621    -1.2232 H       
  34 H34           -0.1783     6.1032     0.0375 H       
  35 H35            4.0225     5.3083    -0.0078 H       
@<TRIPOS>BOND
   1    1    2 am
   2    1    5 am
   3    1    6 2
   4    2    3 1
   5    2    9 1
   6    3    4 1
   7    3    7 1
   8    3    8 1
   9    4    5 1
  10    4   19 1
  11    4   20 1
  12    5   12 1
  13    7   21 1
  14    7   22 1
  15    7   23 1
  16    8   24 1
  17    8   25 1
  18    8   26 1
  19    9   10 1
  20    9   11 1
  21    9   27 1
  22   10   28 1
  23   10   29 1
  24   10   30 1
  25   11   31 1
  26   11   32 1
  27   11   33 1
  28   12   13 ar
  29   12   17 ar
  30   13   14 ar
  31   14   15 ar
  32   14   34 1
  33   15   16 ar
  34   15   18 1
  35   16   17 ar
  36   16   35 1

#	End of record

