#	Name: ASD01915016
#	Creating user name:	WinNT
#	Creation time:	15. 06. 2019 20:04

#	Modifying user name:	WinNT
#	Modification time:	15. 06. 2019 20:04

#	Program:	/corina/corina34_cracker 3.40 0067  02.08.2006

@<TRIPOS>MOLECULE
ASD01915016
  38   39    0    0    0
SMALL
NO_CHARGES


@<TRIPOS>ATOM
   1 C1            -0.0027     1.4141     0.0132 C.ar    
   2 C2            -0.0125     0.0207     0.0130 C.ar    
   3 C3             1.1940    -0.6609    -0.0057 C.ar    
   4 C4             2.3688     0.0747    -0.0236 C.ar    
   5 C5             2.3038     1.4590    -0.0223 C.ar    
   6 N6             1.1451     2.0807    -0.0043 N.ar    
   7 C7            -1.2833     2.1574     0.0269 C.2     
   8 O8            -2.3349     1.5567    -0.0621 O.2     
   9 O9            -1.2817     3.4995     0.1382 O.3     
  10 C10            3.7038    -0.6242    -0.0439 C.3     
  11 O11            4.1054    -0.8451    -1.3974 O.3     
  12 C12            5.2962    -1.4699    -1.5935 C.ar    
  13 C13            5.7476    -1.7165    -2.8820 C.ar    
  14 C14            6.9584    -2.3518    -3.0787 C.ar    
  15 C15            7.7202    -2.7419    -1.9928 C.ar    
  16 C16            7.2723    -2.4977    -0.7076 C.ar    
  17 C17            6.0651    -1.8572    -0.5057 C.ar    
  18 C18           -1.3166    -0.7344     0.0334 C.3     
  19 C19           -1.8962    -0.7734    -1.3571 C.2     
  20 C20           -2.2009    -1.9223    -1.9078 C.2     
  21 C21           -2.5738     4.1620     0.1447 C.3     
  22 H22            1.2184    -1.7407    -0.0060 H       
  23 H23            3.2172     2.0351    -0.0362 H       
  24 H24            4.4462    -0.0041     0.4587 H       
  25 H25            3.6208    -1.5811     0.4713 H       
  26 H26            5.1527    -1.4123    -3.7305 H       
  27 H27            7.3100    -2.5443    -4.0815 H       
  28 H28            8.6665    -3.2385    -2.1486 H       
  29 H29            7.8689    -2.8040     0.1390 H       
  30 H30            5.7180    -1.6624     0.4983 H       
  31 H31           -1.1418    -1.7519     0.3828 H       
  32 H32           -2.0153    -0.2347     0.7044 H       
  33 H33           -2.0605     0.1459    -1.8997 H       
  34 H34           -2.0366    -2.8416    -1.3652 H       
  35 H35           -2.6163    -1.9503    -2.9043 H       
  36 H36           -2.4298     5.2383     0.2393 H       
  37 H37           -3.0976     3.9459    -0.7864 H       
  38 H38           -3.1639     3.7990     0.9863 H       
@<TRIPOS>BOND
   1    1    2 ar
   2    1    6 ar
   3    1    7 1
   4    2    3 ar
   5    2   18 1
   6    3    4 ar
   7    3   22 1
   8    4    5 ar
   9    4   10 1
  10    5    6 ar
  11    5   23 1
  12    7    8 2
  13    7    9 1
  14    9   21 1
  15   10   11 1
  16   10   24 1
  17   10   25 1
  18   11   12 1
  19   12   13 ar
  20   12   17 ar
  21   13   14 ar
  22   13   26 1
  23   14   15 ar
  24   14   27 1
  25   15   16 ar
  26   15   28 1
  27   16   17 ar
  28   16   29 1
  29   17   30 1
  30   18   19 1
  31   18   31 1
  32   18   32 1
  33   19   20 2
  34   19   33 1
  35   20   34 1
  36   20   35 1
  37   21   36 1
  38   21   37 1
  39   21   38 1

#	End of record

