#	Name: ASD01948328
#	Creating user name:	WinNT
#	Creation time:	15. 06. 2019 20:14

#	Modifying user name:	WinNT
#	Modification time:	15. 06. 2019 20:14

#	Program:	/corina/corina34_cracker 3.40 0067  02.08.2006

@<TRIPOS>MOLECULE
ASD01948328
  48   51    0    0    0
SMALL
NO_CHARGES


@<TRIPOS>ATOM
   1 C1            -0.0490     1.5952     0.2122 C.2     
   2 N2            -0.1217     0.2314     0.1677 N.am    
   3 C3             0.9893    -0.5208     0.0632 C.2     
   4 C4             2.3364     1.4675     0.0420 C.2     
   5 C5             1.1466     2.2271     0.1522 C.2     
   6 C6             2.9510     3.1306    -2.1140 C.ar    
   7 C7             3.8522     2.9810    -1.0684 C.ar    
   8 N8             3.5707     2.0970    -0.0213 N.pl3   
   9 C9             3.2315     4.0038    -3.1469 C.ar    
  10 C10            4.4096     4.7295    -3.1416 C.ar    
  11 C11            5.3105     4.5842    -2.1016 C.ar    
  12 C12            5.0357     3.7117    -1.0645 C.ar    
  13 N13            1.2067     3.6289     0.1999 N.am    
  14 S14           -0.1873     4.5134     0.3289 S.o2    
  15 C15           -0.8563     4.0694     1.9555 C.3     
  16 O16            0.8981    -1.7389     0.0253 O.2     
  17 C17           -1.3325    -0.3737     0.2302 C.1     
  18 F18            5.9152     3.5697    -0.0489 F       
  19 Br19           4.7891     5.9225    -4.5588 Br      
  20 O20            0.2531     5.8644     0.3227 O.2     
  21 O21           -1.0193     4.0093    -0.7069 O.2     
  22 C22            2.2483     0.0859    -0.0026 C.2     
  23 F23            3.3651    -0.6670    -0.1076 F       
  24 C24           -2.2244     4.6389     2.3361 C.3     
  25 C25           -2.0828     3.1554     1.9894 C.3     
  26 C26           -2.3815    -0.8980     0.2844 C.1     
  27 C27           -3.6611    -1.5374     0.3505 C.ar    
  28 C28           -3.7524    -2.9304     0.3062 C.ar    
  29 C29           -4.9883    -3.5396     0.3709 C.ar    
  30 C30           -6.1358    -2.7741     0.4789 C.ar    
  31 C31           -6.0528    -1.3937     0.5232 C.ar    
  32 C32           -4.8232    -0.7712     0.4654 C.ar    
  33 H33           -0.9562     2.1758     0.2917 H       
  34 H34            2.0333     2.5613    -2.1219 H       
  35 H35            4.2387     1.9243     0.6605 H       
  36 H36            2.5304     4.1200    -3.9601 H       
  37 H37            6.2292     5.1520    -2.1001 H       
  38 H38            2.0647     4.0793     0.1574 H       
  39 H39           -0.1202     3.9542     2.7511 H       
  40 H40           -2.3885     4.8979     3.3821 H       
  41 H41           -2.7226     5.2803     1.6090 H       
  42 H42           -2.4877     2.8208     1.0343 H       
  43 H43           -2.1537     2.4384     2.8074 H       
  44 H44           -2.8576    -3.5290     0.2213 H       
  45 H45           -5.0604    -4.6167     0.3367 H       
  46 H46           -7.1009    -3.2564     0.5284 H       
  47 H47           -6.9526    -0.8023     0.6072 H       
  48 H48           -4.7595     0.3062     0.5046 H       
@<TRIPOS>BOND
   1    1    2 1
   2    1    5 2
   3    1   33 1
   4    2    3 am
   5    2   17 1
   6    3   22 1
   7    3   16 2
   8    4    5 1
   9    4    8 1
  10    4   22 2
  11    5   13 1
  12    6    7 ar
  13    6    9 ar
  14    6   34 1
  15    7    8 1
  16    7   12 ar
  17    8   35 1
  18    9   10 ar
  19    9   36 1
  20   10   11 ar
  21   10   19 1
  22   11   12 ar
  23   11   37 1
  24   12   18 1
  25   13   14 am
  26   13   38 1
  27   14   15 1
  28   14   20 2
  29   14   21 2
  30   15   24 1
  31   15   25 1
  32   15   39 1
  33   17   26 3
  34   22   23 1
  35   24   25 1
  36   24   40 1
  37   24   41 1
  38   25   42 1
  39   25   43 1
  40   26   27 1
  41   27   28 ar
  42   27   32 ar
  43   28   29 ar
  44   28   44 1
  45   29   30 ar
  46   29   45 1
  47   30   31 ar
  48   30   46 1
  49   31   32 ar
  50   31   47 1
  51   32   48 1

#	End of record

