#	Name: ASD01881222
#	Creating user name:	WinNT
#	Creation time:	15. 06. 2019 19:42

#	Modifying user name:	WinNT
#	Modification time:	15. 06. 2019 19:42

#	Program:	/corina/corina34_cracker 3.40 0067  02.08.2006

@<TRIPOS>MOLECULE
ASD01881222
  45   47    0    0    0
SMALL
NO_CHARGES


@<TRIPOS>ATOM
   1 N1            -0.0158     1.3134     0.0093 N.ar    
   2 C2             0.0021    -0.0041     0.0020 C.ar    
   3 N3             1.1313    -0.6835    -0.0124 N.ar    
   4 C4             2.3010    -0.0550    -0.0202 C.ar    
   5 C5             2.3188     1.3391    -0.0129 C.ar    
   6 C6             1.1111     2.0106     0.0022 C.ar    
   7 C7             3.6226     2.0948    -0.0208 C.3     
   8 O8             4.0223     2.3409    -1.3705 O.3     
   9 C9             5.1847     3.0166    -1.5553 C.ar    
  10 C10            5.6323     3.2898    -2.8447 C.ar    
  11 C11            6.8075     3.9735    -3.0314 C.ar    
  12 C12            7.5614     4.3992    -1.9323 C.ar    
  13 C13            7.1075     4.1223    -0.6383 C.ar    
  14 C14            5.9232     3.4396    -0.4575 C.ar    
  15 C15            7.5574     4.4219    -4.2610 C.3     
  16 N16            8.7582     5.1137    -3.7787 N.am    
  17 C17            8.7561     5.0980    -2.4347 C.2     
  18 O18            9.6182     5.5913    -1.7333 O.2     
  19 Cl19           8.0303     4.6425     0.7370 Cl      
  20 C20            1.0761     3.5172     0.0102 C.3     
  21 C21            1.0502     4.0343    -1.4296 C.3     
  22 F22           -0.0873     3.5448    -2.0805 F       
  23 F23            1.0177     5.4329    -1.4222 F       
  24 F24            2.1965     3.5981    -2.1024 F       
  25 C25            9.4242     7.1810    -4.9030 C.3     
  26 C26            9.7895     5.7219    -4.6230 C.3     
  27 O27            3.4596    -0.7578    -0.0346 O.3     
  28 C28            3.3540    -2.1828    -0.0408 C.3     
  29 H29           -0.9344    -0.5420     0.0084 H       
  30 H30            3.4953     3.0442     0.4993 H       
  31 H31            4.3879     1.5043     0.4829 H       
  32 H32            5.0554     2.9637    -3.6975 H       
  33 H33            5.5724     3.2261     0.5414 H       
  34 H34            7.8390     3.5586    -4.8639 H       
  35 H35            6.9419     5.1043    -4.8472 H       
  36 H36            0.1829     3.8571     0.5344 H       
  37 H37            1.9623     3.8986     0.5173 H       
  38 H38           10.1915     7.6335    -5.5312 H       
  39 H39            8.4634     7.2230    -5.4159 H       
  40 H40            9.3576     7.7260    -3.9614 H       
  41 H41           10.7503     5.6798    -4.1101 H       
  42 H42            9.8561     5.1768    -5.5646 H       
  43 H43            4.3519    -2.6211    -0.0523 H       
  44 H44            2.8230    -2.5117     0.8526 H       
  45 H45            2.8064    -2.5027    -0.9273 H       
@<TRIPOS>BOND
   1    1    2 ar
   2    1    6 ar
   3    2    3 ar
   4    2   29 1
   5    3    4 ar
   6    4    5 ar
   7    4   27 1
   8    5    6 ar
   9    5    7 1
  10    6   20 1
  11    7    8 1
  12    7   30 1
  13    7   31 1
  14    8    9 1
  15    9   10 ar
  16    9   14 ar
  17   10   11 ar
  18   10   32 1
  19   11   12 ar
  20   11   15 1
  21   12   13 ar
  22   12   17 1
  23   13   14 ar
  24   13   19 1
  25   14   33 1
  26   15   16 1
  27   15   34 1
  28   15   35 1
  29   16   17 am
  30   16   26 1
  31   17   18 2
  32   20   21 1
  33   20   36 1
  34   20   37 1
  35   21   22 1
  36   21   23 1
  37   21   24 1
  38   25   26 1
  39   25   38 1
  40   25   39 1
  41   25   40 1
  42   26   41 1
  43   26   42 1
  44   27   28 1
  45   28   43 1
  46   28   44 1
  47   28   45 1

#	End of record

