#	Name: ASD02408439
#	Creating user name:	WinNT
#	Creation time:	15. 06. 2019 20:21

#	Modifying user name:	WinNT
#	Modification time:	15. 06. 2019 20:21

#	Program:	/corina/corina34_cracker 3.40 0067  02.08.2006

@<TRIPOS>MOLECULE
ASD02408439
  25   26    0    0    0
SMALL
NO_CHARGES


@<TRIPOS>ATOM
   1 C1            -0.0168     1.3880     0.0097 C.2     
   2 C2             0.0021    -0.0041     0.0020 C.2     
   3 N3            -1.2819    -0.4187     0.0120 N.pl3   
   4 N4            -2.1115     0.7077     0.0260 N.2     
   5 C5            -1.3746     1.7829     0.0309 C.2     
   6 C6            -1.7314    -1.8131     0.0084 C.3     
   7 N7             1.1247    -0.8097    -0.0134 N.pl3   
   8 C8            -2.5690    -2.1001     1.2669 C.3     
   9 C9            -3.9705    -2.5195     0.7773 C.3     
  10 C10           -3.7301    -3.0411    -0.6612 C.3     
  11 C11           -2.6532    -2.0680    -1.2020 C.3     
  12 C12            1.1226     2.2554     0.0035 C.1     
  13 N13            2.0265     2.9435    -0.0015 N.1     
  14 H14           -1.7382     2.7998     0.0414 H       
  15 H15           -0.8717    -2.4821    -0.0286 H       
  16 H16            2.0085    -0.4099    -0.0197 H       
  17 H17            1.0289    -1.7749    -0.0180 H       
  18 H18           -2.1163    -2.9091     1.8402 H       
  19 H19           -2.6411    -1.2020     1.8803 H       
  20 H20           -4.3737    -3.3119     1.4080 H       
  21 H21           -4.6427    -1.6615     0.7646 H       
  22 H22           -3.3527    -4.0635    -0.6433 H       
  23 H23           -4.6427    -2.9753    -1.2535 H       
  24 H24           -3.1126    -1.1371    -1.5344 H       
  25 H25           -2.0950    -2.5308    -2.0158 H       
@<TRIPOS>BOND
   1    1    2 2
   2    1   12 1
   3    1    5 1
   4    2    3 1
   5    2    7 1
   6    3    4 1
   7    3    6 1
   8    4    5 2
   9    5   14 1
  10    6    8 1
  11    6   11 1
  12    6   15 1
  13    7   16 1
  14    7   17 1
  15    8    9 1
  16    8   18 1
  17    8   19 1
  18    9   10 1
  19    9   20 1
  20    9   21 1
  21   10   11 1
  22   10   22 1
  23   10   23 1
  24   11   24 1
  25   11   25 1
  26   12   13 3

#	End of record

