#	Name: ASD08830097
#	Creating user name:	WinNT
#	Creation time:	15. 06. 2019 21:19

#	Modifying user name:	WinNT
#	Modification time:	15. 06. 2019 21:19

#	Program:	/corina/corina34_cracker 3.40 0067  02.08.2006

@<TRIPOS>MOLECULE
ASD08830097
  40   41    0    0    0
SMALL
NO_CHARGES


@<TRIPOS>ATOM
   1 C1            -0.0178     1.4636     0.0101 C.ar    
   2 C2             0.0021    -0.0041     0.0020 C.2     
   3 C3             1.3172    -0.7397    -0.0145 C.3     
   4 C4             1.0581    -2.2476    -0.0201 C.3     
   5 N5             2.3401    -2.9647    -0.0362 N.3     
   6 O6            -1.0400    -0.6248     0.0086 O.2     
   7 C7             1.1820     2.1846     0.0025 C.ar    
   8 C8             1.1551     3.5615     0.0102 C.ar    
   9 C9            -0.0544     4.2379     0.0259 C.ar    
  10 C10           -1.2463     3.5406     0.0340 C.ar    
  11 C11           -1.2411     2.1542     0.0196 C.ar    
  12 C12            2.1422    -4.4028     0.1963 C.3     
  13 C13            3.4931    -5.1184     0.1121 C.3     
  14 O14            4.3950    -4.5362     1.0571 O.3     
  15 C15            4.6112    -3.1363     0.8596 C.3     
  16 C16            3.2717    -2.4007     0.9513 C.3     
  17 O17           -2.4108     1.4682     0.0272 O.3     
  18 C18           -3.6144     2.2383     0.0501 C.3     
  19 C19           -4.8214     1.2981     0.0555 C.3     
  20 H20            1.8766    -0.4639    -0.9084 H       
  21 H21            1.8936    -0.4734     0.8715 H       
  22 H22            0.4987    -2.5235     0.8738 H       
  23 H23            0.4817    -2.5139    -0.9061 H       
  24 H24            2.1271     1.6621    -0.0090 H       
  25 H25            2.0812     4.1170     0.0043 H       
  26 H26           -0.0648     5.3179     0.0322 H       
  27 H27           -2.1841     4.0761     0.0469 H       
  28 H28            1.7104    -4.5556     1.1854 H       
  29 H29            1.4696    -4.8048    -0.5613 H       
  30 H30            3.3596    -6.1759     0.3402 H       
  31 H31            3.8999    -5.0108    -0.8933 H       
  32 H32            5.2863    -2.7603     1.6283 H       
  33 H33            5.0505    -2.9711    -0.1242 H       
  34 H34            3.4234    -1.3412     0.7449 H       
  35 H35            2.8579    -2.5214     1.9525 H       
  36 H36           -3.6323     2.8577     0.9469 H       
  37 H37           -3.6546     2.8761    -0.8329 H       
  38 H38           -4.8034     0.6787    -0.8412 H       
  39 H39           -4.7812     0.6603     0.9385 H       
  40 H40           -5.7394     1.8855     0.0730 H       
@<TRIPOS>BOND
   1    1    2 1
   2    1    7 ar
   3    1   11 ar
   4    2    3 1
   5    2    6 2
   6    3    4 1
   7    3   20 1
   8    3   21 1
   9    4    5 1
  10    4   22 1
  11    4   23 1
  12    5   12 1
  13    5   16 1
  14    7    8 ar
  15    7   24 1
  16    8    9 ar
  17    8   25 1
  18    9   10 ar
  19    9   26 1
  20   10   11 ar
  21   10   27 1
  22   11   17 1
  23   12   13 1
  24   12   28 1
  25   12   29 1
  26   13   14 1
  27   13   30 1
  28   13   31 1
  29   14   15 1
  30   15   16 1
  31   15   32 1
  32   15   33 1
  33   16   34 1
  34   16   35 1
  35   17   18 1
  36   18   19 1
  37   18   36 1
  38   18   37 1
  39   19   38 1
  40   19   39 1
  41   19   40 1

#	End of record

