#	Name: ASD01150048
#	Creating user name:	WinNT
#	Creation time:	15. 06. 2019 19:03

#	Modifying user name:	WinNT
#	Modification time:	15. 06. 2019 19:03

#	Program:	/corina/corina34_cracker 3.40 0067  02.08.2006

@<TRIPOS>MOLECULE
ASD01150048
  56   58    0    0    0
SMALL
NO_CHARGES


@<TRIPOS>ATOM
   1 C1            -0.0248     1.3798     0.1675 C.2     
   2 C2            -0.0021    -0.0075     0.0876 C.2     
   3 N3            -1.2585    -0.4263    -0.0896 N.2     
   4 C4            -2.0768     0.6042    -0.1273 C.2     
   5 N5            -1.3647     1.7512     0.0335 N.pl3   
   6 N6            -3.4402     0.5314    -0.2969 N.3     
   7 C7            -3.7780    -0.0043    -1.6223 C.3     
   8 C8            -4.0612    -0.2677     0.7679 C.3     
   9 C9            -1.8754     3.0556     0.0513 C.ar    
  10 C10           -2.6826     3.4724     1.1014 C.ar    
  11 C11           -3.1846     4.7590     1.1161 C.ar    
  12 C12           -2.8846     5.6316     0.0862 C.ar    
  13 C13           -2.0811     5.2195    -0.9610 C.ar    
  14 C14           -1.5709     3.9361    -0.9783 C.ar    
  15 N15            1.1248    -0.8141     0.1757 N.am    
  16 C16            1.0041    -2.1532     0.0814 C.2     
  17 C17            2.2015    -3.0102     0.1750 C.ar    
  18 S18           -0.5385    -2.8596    -0.1470 S.2     
  19 C19            1.0785     2.2367     0.3522 C.2     
  20 O20            0.8932     3.5732     0.4099 O.3     
  21 O21            2.1991     1.7722     0.4599 O.2     
  22 C22            2.0561     4.3819     0.5989 C.3     
  23 C23            3.0309     4.1515    -0.5576 C.3     
  24 C24            1.6508     5.8567     0.6382 C.3     
  25 C25            2.7316     4.0032     1.9184 C.3     
  26 C26            2.2876    -4.1802    -0.5835 C.ar    
  27 C27            3.4093    -4.9768    -0.4914 C.ar    
  28 C28            4.4490    -4.6194     0.3511 C.ar    
  29 C29            4.3695    -3.4608     1.1062 C.ar    
  30 C30            3.2562    -2.6522     1.0182 C.ar    
  31 Cl31           5.8575    -5.6281     0.4618 Cl      
  32 H32           -3.3589    -1.0050    -1.7273 H       
  33 H33           -4.8617    -0.0512    -1.7299 H       
  34 H34           -3.3642     0.6457    -2.3933 H       
  35 H35           -3.7801     0.1399     1.7389 H       
  36 H36           -5.1455    -0.2359     0.6606 H       
  37 H37           -3.7189    -1.2999     0.6941 H       
  38 H38           -2.9179     2.7911     1.9058 H       
  39 H39           -3.8125     5.0838     1.9327 H       
  40 H40           -3.2789     6.6369     0.0995 H       
  41 H41           -1.8485     5.9033    -1.7640 H       
  42 H42           -0.9434     3.6148    -1.7965 H       
  43 H43            1.9989    -0.4139     0.3052 H       
  44 H44            2.5497     4.4213    -1.4977 H       
  45 H45            3.9180     4.7683    -0.4134 H       
  46 H46            3.3196     3.1008    -0.5856 H       
  47 H47            0.9563     6.0208     1.4622 H       
  48 H48            2.5379     6.4735     0.7824 H       
  49 H49            1.1696     6.1265    -0.3018 H       
  50 H50            3.0203     2.9525     1.8904 H       
  51 H51            3.6186     4.6200     2.0626 H       
  52 H52            2.0371     4.1673     2.7424 H       
  53 H53            1.4773    -4.4603    -1.2402 H       
  54 H54            3.4771    -5.8816    -1.0773 H       
  55 H55            5.1832    -3.1880     1.7618 H       
  56 H56            3.1953    -1.7491     1.6074 H       
@<TRIPOS>BOND
   1    1    2 2
   2    1   19 1
   3    1    5 1
   4    2    3 1
   5    2   15 1
   6    3    4 2
   7    4    5 1
   8    4    6 1
   9    5    9 1
  10    6    7 1
  11    6    8 1
  12    7   32 1
  13    7   33 1
  14    7   34 1
  15    8   35 1
  16    8   36 1
  17    8   37 1
  18    9   10 ar
  19    9   14 ar
  20   10   11 ar
  21   10   38 1
  22   11   12 ar
  23   11   39 1
  24   12   13 ar
  25   12   40 1
  26   13   14 ar
  27   13   41 1
  28   14   42 1
  29   15   16 am
  30   15   43 1
  31   16   17 1
  32   16   18 2
  33   17   26 ar
  34   17   30 ar
  35   19   20 1
  36   19   21 2
  37   20   22 1
  38   22   23 1
  39   22   24 1
  40   22   25 1
  41   23   44 1
  42   23   45 1
  43   23   46 1
  44   24   47 1
  45   24   48 1
  46   24   49 1
  47   25   50 1
  48   25   51 1
  49   25   52 1
  50   26   27 ar
  51   26   53 1
  52   27   28 ar
  53   27   54 1
  54   28   29 ar
  55   28   31 1
  56   29   30 ar
  57   29   55 1
  58   30   56 1

#	End of record

