#	Name: ASD08151043
#	Creating user name:	WinNT
#	Creation time:	15. 06. 2019 21:17

#	Modifying user name:	WinNT
#	Modification time:	15. 06. 2019 21:17

#	Program:	/corina/corina34_cracker 3.40 0067  02.08.2006

@<TRIPOS>MOLECULE
ASD08151043
  38   40    0    0    0
SMALL
NO_CHARGES


@<TRIPOS>ATOM
   1 N1            -0.0179     1.4702     0.0101 N.3     
   2 C2             0.0021    -0.0041     0.0020 C.3     
   3 C3             1.4820    -0.4413     0.0110 C.3     
   4 C4             2.2089     0.7978     0.5967 C.3     
   5 C5             1.3770     1.9600    -0.0006 C.3     
   6 O6             1.6671    -1.5807     0.8533 O.3     
   7 N7             0.7570     0.9034    -2.6247 N.ar    
   8 C8             1.1459     0.6193    -3.8439 C.ar    
   9 C9             0.4624     1.0959    -4.9606 C.ar    
  10 C10           -0.6438     1.8805    -4.7989 C.ar    
  11 C11           -1.0581     2.1827    -3.4878 C.ar    
  12 C12           -2.1869     2.9833    -3.2453 C.ar    
  13 C13           -2.5627     3.2574    -1.9641 C.ar    
  14 C14           -1.8432     2.7549    -0.8841 C.ar    
  15 C15           -0.7305     1.9666    -1.0819 C.ar    
  16 C16           -0.3165     1.6653    -2.3977 C.ar    
  17 Cl17          -3.1012     3.6228    -4.5752 Cl      
  18 C18           -2.2861     3.0778     0.5197 C.3     
  19 C19           -1.5095     4.2922     1.0327 C.3     
  20 N20           -3.7238     3.3791     0.5224 N.3     
  21 H21           -0.5030    -0.3866     0.8889 H       
  22 H22           -0.4892    -0.3766    -0.8968 H       
  23 H23            1.8287    -0.6487    -1.0014 H       
  24 H24            2.1590     0.8012     1.6856 H       
  25 H25            3.2429     0.8417     0.2547 H       
  26 H26            1.6974     2.1707    -1.0209 H       
  27 H27            1.4709     2.8516     0.6194 H       
  28 H28            2.5805    -1.8956     0.8938 H       
  29 H29            2.0190    -0.0001    -3.9865 H       
  30 H30            0.8071     0.8455    -5.9529 H       
  31 H31           -1.1855     2.2588    -5.6532 H       
  32 H32           -3.4313     3.8735    -1.7845 H       
  33 H33           -2.0928     2.2228     1.1674 H       
  34 H34           -1.7028     5.1473     0.3850 H       
  35 H35           -1.8298     4.5258     2.0481 H       
  36 H36           -0.4427     4.0686     1.0307 H       
  37 H37           -3.9290     4.1688    -0.0713 H       
  38 H38           -4.2631     2.5713     0.2489 H       
@<TRIPOS>BOND
   1    1    2 1
   2    1    5 1
   3    1   15 1
   4    2    3 1
   5    2   21 1
   6    2   22 1
   7    3    4 1
   8    3    6 1
   9    3   23 1
  10    4    5 1
  11    4   24 1
  12    4   25 1
  13    5   26 1
  14    5   27 1
  15    6   28 1
  16    7    8 ar
  17    7   16 ar
  18    8    9 ar
  19    8   29 1
  20    9   10 ar
  21    9   30 1
  22   10   11 ar
  23   10   31 1
  24   11   12 ar
  25   11   16 ar
  26   12   13 ar
  27   12   17 1
  28   13   14 ar
  29   13   32 1
  30   14   15 ar
  31   14   18 1
  32   15   16 ar
  33   18   19 1
  34   18   20 1
  35   18   33 1
  36   19   34 1
  37   19   35 1
  38   19   36 1
  39   20   37 1
  40   20   38 1

#	End of record

