#	Name: ASD07300754
#	Creating user name:	WinNT
#	Creation time:	15. 06. 2019 21:10

#	Modifying user name:	WinNT
#	Modification time:	15. 06. 2019 21:10

#	Program:	/corina/corina34_cracker 3.40 0067  02.08.2006

@<TRIPOS>MOLECULE
ASD07300754
  47   50    0    0    0
SMALL
NO_CHARGES


@<TRIPOS>ATOM
   1 C1            -0.0034     1.3925     0.2414 C.2     
   2 C2             0.0021    -0.0041     0.0020 C.2     
   3 N3             1.1924     2.0682     0.2265 N.pl3   
   4 N4             1.1445    -0.6201    -0.2278 N.2     
   5 C5             2.3036     0.0470    -0.2402 C.2     
   6 C6             2.3502     1.3752    -0.0186 C.2     
   7 N7            -0.9664     2.2611     0.5002 N.2     
   8 C8            -0.4399     3.4745     0.6478 C.2     
   9 C9             0.9142     3.3817     0.4819 C.2     
  10 C10           -1.2060     4.7364     0.9507 C.3     
  11 F11           -2.5521     4.4238     1.1683 F       
  12 F12           -0.6763     5.3399     2.0964 F       
  13 F13           -1.1006     5.6169    -0.1313 F       
  14 N14           -1.1860    -0.7178     0.0100 N.pl3   
  15 C15           -2.4813    -0.0311     0.1360 C.3     
  16 C16           -3.4038    -0.5300    -0.9821 C.3     
  17 O17           -3.4381    -1.9591    -0.9615 O.3     
  18 C18           -2.1747    -2.5786    -1.2141 C.3     
  19 C19           -1.1896    -2.1841    -0.1135 C.3     
  20 N20            2.8668     6.4360     0.3101 N.pl3   
  21 N21            3.7010     5.6268     1.0908 N.2     
  22 C22            3.1254     4.4643     1.2475 C.2     
  23 C23            1.8916     4.4906     0.5659 C.2     
  24 C24            1.7627     5.7256    -0.0033 C.2     
  25 C25            3.1419     7.8176    -0.0919 C.3     
  26 C26            3.4236     8.6640     1.1512 C.3     
  27 O27            3.6920    10.0117     0.7590 O.3     
  28 C28            3.9693    10.8906     1.8511 C.3     
  29 H29            3.2209    -0.4898    -0.4320 H       
  30 H30            3.2977     1.8932    -0.0336 H       
  31 H31           -2.9242    -0.2578     1.1059 H       
  32 H32           -2.3372     1.0450     0.0402 H       
  33 H33           -4.4093    -0.1394    -0.8259 H       
  34 H34           -3.0254    -0.1888    -1.9457 H       
  35 H35           -2.2959    -3.6617    -1.2248 H       
  36 H36           -1.7918    -2.2448    -2.1785 H       
  37 H37           -0.1904    -2.5330    -0.3744 H       
  38 H38           -1.5001    -2.6313     0.8308 H       
  39 H39            3.5254     3.6285     1.8024 H       
  40 H40            0.9286     6.0711    -0.5961 H       
  41 H41            4.0105     7.8384    -0.7501 H       
  42 H42            2.2773     8.2218    -0.6184 H       
  43 H43            2.5550     8.6432     1.8094 H       
  44 H44            4.2882     8.2598     1.6777 H       
  45 H45            3.1121    10.9160     2.5238 H       
  46 H46            4.8452    10.5325     2.3922 H       
  47 H47            4.1623    11.8935     1.4704 H       
@<TRIPOS>BOND
   1    1    2 1
   2    1    3 1
   3    1    7 2
   4    2    4 2
   5    2   14 1
   6    3    6 1
   7    3    9 1
   8    4    5 1
   9    5    6 2
  10    5   29 1
  11    6   30 1
  12    7    8 1
  13    8    9 2
  14    8   10 1
  15    9   23 1
  16   10   11 1
  17   10   12 1
  18   10   13 1
  19   14   15 1
  20   14   19 1
  21   15   16 1
  22   15   31 1
  23   15   32 1
  24   16   17 1
  25   16   33 1
  26   16   34 1
  27   17   18 1
  28   18   19 1
  29   18   35 1
  30   18   36 1
  31   19   37 1
  32   19   38 1
  33   20   21 1
  34   20   24 1
  35   20   25 1
  36   21   22 2
  37   22   23 1
  38   22   39 1
  39   23   24 2
  40   24   40 1
  41   25   26 1
  42   25   41 1
  43   25   42 1
  44   26   27 1
  45   26   43 1
  46   26   44 1
  47   27   28 1
  48   28   45 1
  49   28   46 1
  50   28   47 1

#	End of record

