#	Name: ASD02440041
#	Creating user name:	WinNT
#	Creation time:	15. 06. 2019 20:21

#	Modifying user name:	WinNT
#	Modification time:	15. 06. 2019 20:21

#	Program:	/corina/corina34_cracker 3.40 0067  02.08.2006

@<TRIPOS>MOLECULE
ASD02440041
  59   63    0    0    0
SMALL
NO_CHARGES


@<TRIPOS>ATOM
   1 N1            -0.0668     1.2486     0.0426 N.am    
   2 C2            -0.0264    -0.1135    -0.0774 C.2     
   3 S3             1.6851    -0.5690    -0.1364 S.3     
   4 C4             2.2849     1.0948     0.0030 C.2     
   5 C5             1.0737     1.9166     0.0886 C.2     
   6 N6            -1.0568    -0.9264    -0.1370 N.2     
   7 C7            -0.8582    -2.2757    -0.2577 C.ar    
   8 C8            -1.3487     1.9543     0.1127 C.3     
   9 C9            -1.7794     2.0718     1.5521 C.ar    
  10 O10            1.1149     3.1285     0.1942 O.2     
  11 C11            3.5761     1.5132     0.0261 C.2     
  12 C12            4.6647     0.5312     0.1086 C.ar    
  13 C13            4.3856    -0.8017     0.4353 C.ar    
  14 C14            5.4100    -1.7182     0.5108 C.ar    
  15 C15            6.7197    -1.3227     0.2639 C.ar    
  16 C16            7.0026    -0.0006    -0.0605 C.ar    
  17 C17            5.9851     0.9229    -0.1448 C.ar    
  18 C18           -1.5918    -3.1655     0.5300 C.ar    
  19 C19           -1.3872    -4.5238     0.4039 C.ar    
  20 C20           -0.4563    -5.0059    -0.5019 C.ar    
  21 C21            0.2745    -4.1280    -1.2862 C.ar    
  22 C22            0.0746    -2.7678    -1.1731 C.ar    
  23 C23           -2.9504     1.1776     3.4400 C.ar    
  24 C24           -2.5523     1.0762     2.1231 C.ar    
  25 C25           -1.3953     3.1719     2.2982 C.ar    
  26 C26           -1.7860     3.2858     3.6163 C.ar    
  27 C27           -2.5708     2.2877     4.1972 C.ar    
  28 C28           -2.9937     2.4033     5.6079 C.2     
  29 O29           -3.6733     1.5316     6.1116 O.2     
  30 O30           -2.6258     3.4755     6.3356 O.3     
  31 F31           -0.2599    -6.3373    -0.6207 F       
  32 O32            7.7262    -2.2306     0.3401 O.3     
  33 C33            7.8013    -3.1824    -0.6267 C.ar    
  34 C34            6.9499    -3.1301    -1.7211 C.ar    
  35 C35            8.7334    -4.2052    -0.5241 C.ar    
  36 C36            8.8077    -5.1716    -1.5084 C.ar    
  37 C37            7.9545    -5.1201    -2.5953 C.ar    
  38 C38            7.0283    -4.0990    -2.7026 C.ar    
  39 H39           -1.2391     2.9503    -0.3162 H       
  40 H40           -2.1006     1.3982    -0.4473 H       
  41 H41            3.8026     2.5683    -0.0162 H       
  42 H42            3.3686    -1.1099     0.6281 H       
  43 H43            5.1958    -2.7464     0.7627 H       
  44 H44            8.0218     0.3014    -0.2510 H       
  45 H45            6.2059     1.9495    -0.3972 H       
  46 H46           -2.3174    -2.7908     1.2367 H       
  47 H47           -1.9537    -5.2129     1.0128 H       
  48 H48            0.9988    -4.5096    -1.9905 H       
  49 H49            0.6448    -2.0844    -1.7849 H       
  50 H50           -3.5543     0.4002     3.8842 H       
  51 H51           -2.8449     0.2180     1.5364 H       
  52 H52           -0.7880     3.9430     1.8477 H       
  53 H53           -1.4852     4.1448     4.1976 H       
  54 H54           -2.9266     3.5069     7.2541 H       
  55 H55            6.2263    -2.3328    -1.8054 H       
  56 H56            9.4005    -4.2454     0.3243 H       
  57 H57            9.5330    -5.9678    -1.4290 H       
  58 H58            8.0147    -5.8762    -3.3641 H       
  59 H59            6.3656    -4.0590    -3.5544 H       
@<TRIPOS>BOND
   1    1    2 1
   2    1    5 am
   3    1    8 1
   4    2    3 1
   5    2    6 2
   6    3    4 1
   7    4    5 1
   8    4   11 2
   9    5   10 2
  10    6    7 1
  11    7   18 ar
  12    7   22 ar
  13    8    9 1
  14    8   39 1
  15    8   40 1
  16    9   25 ar
  17    9   24 ar
  18   11   12 1
  19   11   41 1
  20   12   13 ar
  21   12   17 ar
  22   13   14 ar
  23   13   42 1
  24   14   15 ar
  25   14   43 1
  26   15   16 ar
  27   15   32 1
  28   16   17 ar
  29   16   44 1
  30   17   45 1
  31   18   19 ar
  32   18   46 1
  33   19   20 ar
  34   19   47 1
  35   20   21 ar
  36   20   31 1
  37   21   22 ar
  38   21   48 1
  39   22   49 1
  40   23   24 ar
  41   23   27 ar
  42   23   50 1
  43   24   51 1
  44   25   26 ar
  45   25   52 1
  46   26   27 ar
  47   26   53 1
  48   27   28 1
  49   28   29 2
  50   28   30 1
  51   30   54 1
  52   32   33 1
  53   33   35 ar
  54   33   34 ar
  55   34   38 ar
  56   34   55 1
  57   35   36 ar
  58   35   56 1
  59   36   37 ar
  60   36   57 1
  61   37   38 ar
  62   37   58 1
  63   38   59 1

#	End of record

