#	Name: ASD06660207
#	Creating user name:	WinNT
#	Creation time:	15. 06. 2019 21:08

#	Modifying user name:	WinNT
#	Modification time:	15. 06. 2019 21:08

#	Program:	/corina/corina34_cracker 3.40 0067  02.08.2006

@<TRIPOS>MOLECULE
ASD06660207
  66   69    0    0    0
SMALL
NO_CHARGES


@<TRIPOS>ATOM
   1 C1            -0.0184     1.5028     0.0103 C.2     
   2 C2             0.0021    -0.0041     0.0020 C.3     
   3 C3            -0.7241    -0.5171    -1.2431 C.3     
   4 O4             1.0197     2.1211     0.0037 O.2     
   5 O5            -1.1898     2.1580     0.0194 O.3     
   6 C6             2.0717    -0.5994     1.1419 C.2     
   7 C7             3.4721    -1.0732     1.1260 C.ar    
   8 C8             3.7517    -2.4373     1.2212 C.ar    
   9 C9             5.0606    -2.8728     1.2053 C.ar    
  10 C10            6.0951    -1.9606     1.0957 C.ar    
  11 C11            5.8249    -0.6070     1.0009 C.ar    
  12 C12            4.5202    -0.1587     1.0099 C.ar    
  13 O13            1.5355    -0.3233     2.1972 O.2     
  14 N14            1.3897    -0.4735    -0.0138 N.am    
  15 C15            4.2274     1.3155     0.9003 C.3     
  16 C16            7.5225    -2.4435     1.0799 C.3     
  17 C17            2.6262    -3.4322     1.3416 C.3     
  18 C18           -0.8113    -2.0207    -1.1900 C.ar    
  19 C19           -1.8994    -2.6267    -0.5878 C.ar    
  20 C20           -1.9848    -4.0029    -0.5356 C.ar    
  21 C21           -0.9712    -4.7833    -1.0920 C.ar    
  22 C22            0.1231    -4.1662    -1.6982 C.ar    
  23 C23            0.1944    -2.7891    -1.7486 C.ar    
  24 O24           -2.0866    -6.9182    -0.4681 O.3     
  25 C25           -1.0564    -6.2598    -1.0390 C.2     
  26 N26           -0.1483    -7.0393    -1.5371 N.2     
  27 C27           -0.5612    -8.4388    -1.3151 C.3     
  28 C28           -2.0562    -8.2787    -0.9462 C.3     
  29 C29           -0.3991    -9.2655    -2.5923 C.3     
  30 N30            0.9879    -9.1804    -3.0564 N.pl3   
  31 C31            1.3782    -9.8546    -4.2075 C.ar    
  32 C32            0.4467   -10.6086    -4.9144 C.ar    
  33 C33            0.8487   -11.2743    -6.0580 C.ar    
  34 C34            2.1740   -11.1634    -6.4582 C.ar    
  35 C35            3.0447   -10.3981    -5.7090 C.ar    
  36 N36            2.6319    -9.7693    -4.6246 N.ar    
  37 H37           -0.4983    -0.3791     0.8948 H       
  38 H38           -1.7288    -0.0959    -1.2772 H       
  39 H39           -0.1736    -0.2164    -2.1345 H       
  40 H40           -1.1523     3.1243     0.0245 H       
  41 H41            5.2783    -3.9281     1.2788 H       
  42 H42            6.6369     0.0999     0.9156 H       
  43 H43            1.8177    -0.6938    -0.8559 H       
  44 H44            4.1969     1.7550     1.8973 H       
  45 H45            5.0092     1.7986     0.3141 H       
  46 H46            3.2645     1.4593     0.4103 H       
  47 H47            7.8285    -2.6396     0.0523 H       
  48 H48            8.1692    -1.6799     1.5121 H       
  49 H49            7.6024    -3.3604     1.6640 H       
  50 H50            2.3155    -3.7516     0.3468 H       
  51 H51            2.9653    -4.2973     1.9115 H       
  52 H52            1.7836    -2.9674     1.8536 H       
  53 H53           -2.6835    -2.0214    -0.1574 H       
  54 H54           -2.8344    -4.4748    -0.0646 H       
  55 H55            0.9111    -4.7650    -2.1304 H       
  56 H56            1.0392    -2.3102    -2.2212 H       
  57 H57           -0.0025    -8.8836    -0.4917 H       
  58 H58           -2.3421    -8.9767    -0.1593 H       
  59 H59           -2.6911    -8.3995    -1.8239 H       
  60 H60           -0.6499   -10.3060    -2.3859 H       
  61 H61           -1.0646    -8.8773    -3.3633 H       
  62 H62            1.6338    -8.6535    -2.5603 H       
  63 H63           -0.5764   -10.6734    -4.5744 H       
  64 H64            0.1479   -11.8673    -6.6268 H       
  65 H65            2.5199   -11.6711    -7.3464 H       
  66 H66            4.0761   -10.3092    -6.0166 H       
@<TRIPOS>BOND
   1    1    2 1
   2    1    4 2
   3    1    5 1
   4    2    3 1
   5    2   14 1
   6    2   37 1
   7    3   18 1
   8    3   38 1
   9    3   39 1
  10    5   40 1
  11    6    7 1
  12    6   13 2
  13    6   14 am
  14    7    8 ar
  15    7   12 ar
  16    8    9 ar
  17    8   17 1
  18    9   10 ar
  19    9   41 1
  20   10   11 ar
  21   10   16 1
  22   11   12 ar
  23   11   42 1
  24   12   15 1
  25   14   43 1
  26   15   44 1
  27   15   45 1
  28   15   46 1
  29   16   47 1
  30   16   48 1
  31   16   49 1
  32   17   50 1
  33   17   51 1
  34   17   52 1
  35   18   19 ar
  36   18   23 ar
  37   19   20 ar
  38   19   53 1
  39   20   21 ar
  40   20   54 1
  41   21   22 ar
  42   21   25 1
  43   22   23 ar
  44   22   55 1
  45   23   56 1
  46   24   25 1
  47   24   28 1
  48   25   26 2
  49   26   27 1
  50   27   28 1
  51   27   29 1
  52   27   57 1
  53   28   58 1
  54   28   59 1
  55   29   30 1
  56   29   60 1
  57   29   61 1
  58   30   31 1
  59   30   62 1
  60   31   32 ar
  61   31   36 ar
  62   32   33 ar
  63   32   63 1
  64   33   34 ar
  65   33   64 1
  66   34   35 ar
  67   34   65 1
  68   35   36 ar
  69   35   66 1

#	End of record

