#	Name: ASD01200346
#	Creating user name:	WinNT
#	Creation time:	15. 06. 2019 19:09

#	Modifying user name:	WinNT
#	Modification time:	15. 06. 2019 19:09

#	Program:	/corina/corina34_cracker 3.40 0067  02.08.2006

@<TRIPOS>MOLECULE
ASD01200346
  29   30    0    0    0
SMALL
NO_CHARGES


@<TRIPOS>ATOM
   1 N1            -0.2580     1.1266    -0.4902 N.ar    
   2 C2            -0.1809    -0.1701    -0.2679 C.ar    
   3 C3             1.0162    -0.8504    -0.4518 C.ar    
   4 C4             2.1376    -0.1418    -0.8755 C.ar    
   5 C5             2.0108     1.2199    -1.0970 C.ar    
   6 C6             0.7855     1.8261    -0.8919 C.ar    
   7 N7             1.0941    -2.2265    -0.2144 N.am    
   8 C8             2.3156    -2.9605    -0.5544 C.3     
   9 C9             0.0454    -2.8774     0.3270 C.2     
  10 O10           -0.9532    -2.2607     0.6489 O.2     
  11 N11           -0.9567    -5.1593     0.7965 N.pl3   
  12 C12            0.1077    -4.3286     0.5281 C.2     
  13 C13            1.2431    -5.1099     0.4824 C.2     
  14 C14            0.8451    -6.4277     0.7281 C.2     
  15 C15           -0.4964    -6.4286     0.9155 C.2     
  16 C16           -2.3534    -4.7402     0.9365 C.3     
  17 H17           -1.0571    -0.7091     0.0608 H       
  18 H18            3.0830    -0.6414    -1.0274 H       
  19 H19            2.8595     1.8012    -1.4257 H       
  20 H20            0.6812     2.8873    -1.0631 H       
  21 H21            2.9403    -3.0572     0.3336 H       
  22 H22            2.0529    -3.9518    -0.9235 H       
  23 H23            2.8623    -2.4185    -1.3260 H       
  24 H24            2.2499    -4.7683     0.2927 H       
  25 H25            1.4925    -7.2914     0.7624 H       
  26 H26           -1.1006    -7.2987     1.1259 H       
  27 H27           -2.8638    -4.8516    -0.0202 H       
  28 H28           -2.8457    -5.3609     1.6852 H       
  29 H29           -2.3901    -3.6965     1.2485 H       
@<TRIPOS>BOND
   1    1    2 ar
   2    1    6 ar
   3    2    3 ar
   4    2   17 1
   5    3    4 ar
   6    3    7 1
   7    4    5 ar
   8    4   18 1
   9    5    6 ar
  10    5   19 1
  11    6   20 1
  12    7    8 1
  13    7    9 am
  14    8   21 1
  15    8   22 1
  16    8   23 1
  17    9   10 2
  18    9   12 1
  19   11   12 1
  20   11   15 1
  21   11   16 1
  22   12   13 2
  23   13   14 1
  24   13   24 1
  25   14   15 2
  26   14   25 1
  27   15   26 1
  28   16   27 1
  29   16   28 1
  30   16   29 1

#	End of record

