#	Name: ASD09116224
#	Creating user name:	WinNT
#	Creation time:	15. 06. 2019 21:21

#	Modifying user name:	WinNT
#	Modification time:	15. 06. 2019 21:21

#	Program:	/corina/corina34_cracker 3.40 0067  02.08.2006

@<TRIPOS>MOLECULE
ASD09116224
  75   81    0    0    0
SMALL
NO_CHARGES


@<TRIPOS>ATOM
   1 N1            -0.5363     3.8712     0.6618 N.2     
   2 N2            -1.0697     5.0277     1.2532 N.pl3   
   3 C3             0.7616     4.0437     0.5861 C.2     
   4 N4             1.0728     5.2413     1.0956 N.2     
   5 C5            -0.0217     5.8476     1.5027 C.2     
   6 N6             1.6712     3.1263     0.0595 N.pl3   
   7 C7             3.0198     3.4718    -0.0640 C.ar    
   8 C8             4.0098     2.4992     0.0067 C.ar    
   9 C9             5.6748     4.0791    -0.3029 C.ar    
  10 C10            4.7498     5.0956    -0.3841 C.ar    
  11 C11            3.3973     4.7948    -0.2659 C.ar    
  12 C12           -2.4144     5.2817     1.5292 C.ar    
  13 N13           -2.7442     6.1304     2.4913 N.ar    
  14 N14           -3.9665     6.3920     2.7917 N.ar    
  15 C15           -4.9753     5.8225     2.1519 C.ar    
  16 C16           -4.7231     4.9291     1.1068 C.ar    
  17 C17           -3.4123     4.6453     0.7868 C.ar    
  18 C18           -6.3836     6.0806     2.5316 C.ar    
  19 C19           -7.2398     4.9955     2.7252 C.ar    
  20 C20           -6.6993     3.5975     2.5989 C.3     
  21 C21           -6.5191     3.2003     1.1363 C.3     
  22 C22           -5.8701     4.3322     0.3444 C.3     
  23 C23           -6.8577     7.3780     2.6912 C.ar    
  24 C24           -8.1825     7.5859     3.0232 C.ar    
  25 C25           -9.0328     6.5084     3.1938 C.ar    
  26 C26           -8.5627     5.2151     3.0442 C.ar    
  27 N27           -0.0896     7.1005     2.0818 N.pl3   
  28 N28            5.2768     2.8273    -0.1122 N.ar    
  29 C29            7.1563     4.3259    -0.4325 C.3     
  30 C30            7.4762     5.8025    -0.2106 C.3     
  31 C31            6.5654     6.6380    -1.1178 C.3     
  32 C32            5.1357     6.5358    -0.5895 C.3     
  33 C33            7.0120     8.0772    -1.0988 C.2     
  34 N34            8.0062     8.4850    -1.9123 N.am    
  35 O35            6.4768     8.8684    -0.3515 O.2     
  36 C36            8.5299     9.8572    -1.8350 C.3     
  37 C37           10.0559     9.7897    -1.7129 C.3     
  38 N38           10.5965     8.9795    -2.8127 N.3     
  39 C39           10.1195     7.5922    -2.7370 C.3     
  40 C40            8.6002     7.5679    -2.8968 C.3     
  41 C41           12.0645     9.0311    -2.8323 C.3     
  42 H42            1.3677     2.2487    -0.2208 H       
  43 H43            3.7359     1.4659     0.1608 H       
  44 H44            2.6532     5.5749    -0.3302 H       
  45 H45           -3.1662     3.9511    -0.0032 H       
  46 H46           -5.7357     3.5407     3.1051 H       
  47 H47           -7.3921     2.9031     3.0742 H       
  48 H48           -5.8864     2.3145     1.0804 H       
  49 H49           -7.4933     2.9723     0.7037 H       
  50 H50           -6.6130     5.1059     0.1506 H       
  51 H51           -5.5045     3.9415    -0.6053 H       
  52 H52           -6.1935     8.2190     2.5568 H       
  53 H53           -8.5549     8.5916     3.1502 H       
  54 H54          -10.0695     6.6772     3.4449 H       
  55 H55           -9.2321     4.3783     3.1780 H       
  56 H56            0.7207     7.6154     2.2202 H       
  57 H57           -0.9476     7.4650     2.3500 H       
  58 H58            7.6865     3.7279     0.3088 H       
  59 H59            7.4835     4.0332    -1.4302 H       
  60 H60            7.2946     6.0641     0.8318 H       
  61 H61            8.5193     5.9934    -0.4629 H       
  62 H62            6.6088     6.2529    -2.1366 H       
  63 H63            4.4537     6.9919    -1.3071 H       
  64 H64            5.0646     7.0660     0.3603 H       
  65 H65            8.2587    10.4041    -2.7380 H       
  66 H66            8.1146    10.3590    -0.9610 H       
  67 H67           10.4700    10.7966    -1.7653 H       
  68 H68           10.3248     9.3346    -0.7597 H       
  69 H69           10.5796     7.0055    -3.5321 H       
  70 H70           10.3875     7.1677    -1.7695 H       
  71 H71            8.2303     6.5567    -2.7274 H       
  72 H72            8.3325     7.8952    -3.9014 H       
  73 H73           12.4542     8.6459    -1.8901 H       
  74 H74           12.4384     8.4230    -3.6560 H       
  75 H75           12.3900    10.0628    -2.9654 H       
@<TRIPOS>BOND
   1    1    2 1
   2    1    3 2
   3    2   12 1
   4    2    5 1
   5    3    4 1
   6    3    6 1
   7    4    5 2
   8    5   27 1
   9    6    7 1
  10    6   42 1
  11    7    8 ar
  12    7   11 ar
  13    8   28 ar
  14    8   43 1
  15    9   10 ar
  16    9   29 1
  17    9   28 ar
  18   10   11 ar
  19   10   32 1
  20   11   44 1
  21   12   13 ar
  22   12   17 ar
  23   13   14 ar
  24   14   15 ar
  25   15   16 ar
  26   15   18 1
  27   16   17 ar
  28   16   22 1
  29   17   45 1
  30   18   19 ar
  31   18   23 ar
  32   19   20 1
  33   19   26 ar
  34   20   21 1
  35   20   46 1
  36   20   47 1
  37   21   22 1
  38   21   48 1
  39   21   49 1
  40   22   50 1
  41   22   51 1
  42   23   24 ar
  43   23   52 1
  44   24   25 ar
  45   24   53 1
  46   25   26 ar
  47   25   54 1
  48   26   55 1
  49   27   56 1
  50   27   57 1
  51   29   30 1
  52   29   58 1
  53   29   59 1
  54   30   31 1
  55   30   60 1
  56   30   61 1
  57   31   32 1
  58   31   33 1
  59   31   62 1
  60   32   63 1
  61   32   64 1
  62   33   34 am
  63   33   35 2
  64   34   36 1
  65   34   40 1
  66   36   37 1
  67   36   65 1
  68   36   66 1
  69   37   38 1
  70   37   67 1
  71   37   68 1
  72   38   39 1
  73   38   41 1
  74   39   40 1
  75   39   69 1
  76   39   70 1
  77   40   71 1
  78   40   72 1
  79   41   73 1
  80   41   74 1
  81   41   75 1

#	End of record

