#	Name: ASD05143298
#	Creating user name:	WinNT
#	Creation time:	15. 06. 2019 20:57

#	Modifying user name:	WinNT
#	Modification time:	15. 06. 2019 20:57

#	Program:	/corina/corina34_cracker 3.40 0067  02.08.2006

@<TRIPOS>MOLECULE
ASD05143298
  51   53    0    0    0
SMALL
NO_CHARGES


@<TRIPOS>ATOM
   1 C1             0.1290     1.3318     0.1910 C.2     
   2 N2             0.2070     0.0670    -0.1728 N.2     
   3 S3            -1.3963    -0.4915    -0.2427 S.3     
   4 C4            -2.0921     1.0136     0.2236 C.2     
   5 N5            -1.0742     1.8265     0.4041 N.2     
   6 N6            -3.4344     1.3037     0.3800 N.pl3   
   7 C7            -3.8278     2.5550     0.8693 C.ar    
   8 C8            -4.4578     2.6519     2.1031 C.ar    
   9 C9            -4.8450     3.8866     2.5852 C.ar    
  10 C10           -4.6053     5.0300     1.8373 C.ar    
  11 C11           -3.9764     4.9341     0.6046 C.ar    
  12 C12           -3.5830     3.7008     0.1237 C.ar    
  13 C13            1.3461    -0.6493    -0.4398 C.ar    
  14 C14            1.6161    -1.8246     0.2632 C.ar    
  15 C15            2.2373    -0.2092    -1.4199 C.ar    
  16 C16            3.3807    -0.9345    -1.6839 C.ar    
  17 C17            3.6450    -2.0958    -0.9797 C.ar    
  18 C18            2.7631    -2.5405    -0.0106 C.ar    
  19 C19            1.3446     2.1618     0.3595 C.ar    
  20 C20            1.3067     3.5256     0.0707 C.ar    
  21 C21            2.5298     1.5835     0.8131 C.ar    
  22 C22            3.6586     2.3618     0.9686 C.ar    
  23 C23            3.6161     3.7132     0.6758 C.ar    
  24 C24            2.4420     4.2935     0.2300 C.ar    
  25 C25           -4.4455     0.3017     0.0337 C.3     
  26 C26            4.8957    -2.8833    -1.2738 C.3     
  27 O27           -4.9873     6.2454     2.3126 O.3     
  28 C28           -4.7091     7.3803     1.4900 C.3     
  29 H29           -4.6452     1.7617     2.6852 H       
  30 H30           -5.3350     3.9621     3.5447 H       
  31 H31           -3.7904     5.8248     0.0227 H       
  32 H32           -3.0930     3.6264    -0.8358 H       
  33 H33            0.9287    -2.1726     1.0201 H       
  34 H34            2.0320     0.6970    -1.9705 H       
  35 H35            4.0709    -0.5953    -2.4421 H       
  36 H36            2.9754    -3.4476     0.5357 H       
  37 H37            0.3907     3.9797    -0.2774 H       
  38 H38            2.5639     0.5287     1.0427 H       
  39 H39            4.5770     1.9151     1.3198 H       
  40 H40            4.5020     4.3184     0.7993 H       
  41 H41            2.4149     5.3491     0.0030 H       
  42 H42           -4.6634    -0.3118     0.9079 H       
  43 H43           -5.3562     0.8029    -0.2945 H       
  44 H44           -4.0694    -0.3314    -0.7699 H       
  45 H45            5.7065    -2.5284    -0.6375 H       
  46 H46            4.7147    -3.9399    -1.0764 H       
  47 H47            5.1707    -2.7511    -2.3202 H       
  48 H48           -3.6342     7.4550     1.3252 H       
  49 H49           -5.2166     7.2678     0.5319 H       
  50 H50           -5.0644     8.2839     1.9854 H       
  51 Br51          10.7065    13.2839     8.5447 Br      
@<TRIPOS>BOND
   1    1    2 2
   2    1   19 1
   3    1    5 1
   4    2    3 1
   5    2   13 1
   6    3    4 1
   7    4    5 2
   8    4    6 1
   9    6    7 1
  10    6   25 1
  11    7    8 ar
  12    7   12 ar
  13    8    9 ar
  14    8   29 1
  15    9   10 ar
  16    9   30 1
  17   10   11 ar
  18   10   27 1
  19   11   12 ar
  20   11   31 1
  21   12   32 1
  22   13   14 ar
  23   13   15 ar
  24   14   18 ar
  25   14   33 1
  26   15   16 ar
  27   15   34 1
  28   16   17 ar
  29   16   35 1
  30   17   18 ar
  31   17   26 1
  32   18   36 1
  33   19   20 ar
  34   19   21 ar
  35   20   24 ar
  36   20   37 1
  37   21   22 ar
  38   21   38 1
  39   22   23 ar
  40   22   39 1
  41   23   24 ar
  42   23   40 1
  43   24   41 1
  44   25   42 1
  45   25   43 1
  46   25   44 1
  47   26   45 1
  48   26   46 1
  49   26   47 1
  50   27   28 1
  51   28   48 1
  52   28   49 1
  53   28   50 1

#	End of record

