#	Name: ASD06590041
#	Creating user name:	WinNT
#	Creation time:	15. 06. 2019 21:06

#	Modifying user name:	WinNT
#	Modification time:	15. 06. 2019 21:06

#	Program:	/corina/corina34_cracker 3.40 0067  02.08.2006

@<TRIPOS>MOLECULE
ASD06590041
 348  348    0    0    0
SMALL
NO_CHARGES


@<TRIPOS>ATOM
   1 C1             5.3874     6.5226    15.7170 C.2     
   2 O2             6.0700     6.4444    14.7176 O.2     
   3 N3             7.2712     7.7044    16.6886 N.am    
   4 C4             5.8753     7.3145    16.9027 C.3     
   5 C5             5.0149     8.5690    17.0670 C.3     
   6 C6             5.4991     9.3641    18.2812 C.3     
   7 O7             5.1231     9.3778    15.8940 O.3     
   8 C8             2.2369     5.7198    14.3371 C.2     
   9 O9             1.7278     6.5148    15.0984 O.2     
  10 N10            4.1901     5.9057    15.7652 N.am    
  11 C11            3.6521     5.2559    14.5675 C.3     
  12 C12            3.6663     3.7382    14.7607 C.3     
  13 C13            5.0876     3.2666    14.9294 C.2     
  14 O14            5.9964     4.0697    14.9352 O.2     
  15 N15            5.3488     1.9523    15.0740 N.am    
  16 C16           -0.5880     4.6575    12.2744 C.2     
  17 O17           -0.0279     3.6369    11.9344 O.2     
  18 N18            1.5370     5.2511    13.2850 N.am    
  19 C19            0.1612     5.7020    13.0610 C.3     
  20 C20            0.1764     7.0164    12.2781 C.3     
  21 C21           -4.0240     4.3059    10.9538 C.2     
  22 O22           -4.3883     5.3790    11.3857 O.2     
  23 N23           -1.8804     4.8575    11.9488 N.am    
  24 C24           -2.6088     3.8421    11.1842 C.3     
  25 C25           -7.1536     2.7832     9.8356 C.2     
  26 O26           -6.6868     1.6644     9.8710 O.2     
  27 N27           -4.8848     3.5282    10.2677 N.am    
  28 C28           -6.2605     3.9792    10.0437 C.3     
  29 C29           -6.3085     4.8735     8.8032 C.3     
  30 C30           -5.5019     6.1477     9.0615 C.3     
  31 C31           -5.5499     7.0420     7.8211 C.3     
  32 N32           -4.7776     8.2620     8.0684 N.pl3   
  33 C33           -4.6768     9.2221     7.0895 C.2     
  34 N34           -5.2683     9.0468     5.9414 N.2     
  35 N35           -3.9520    10.3670     7.3217 N.pl3   
  36 C36          -10.5452     2.2023     8.6019 C.2     
  37 O37          -10.6676     3.3510     8.2327 O.2     
  38 N38           -8.4709     2.9570     9.6103 N.am    
  39 C39           -9.3391     1.7944     9.4080 C.3     
  40 C40           -9.7921     1.2538    10.7657 C.3     
  41 O41          -10.6101     2.2277    11.4173 O.3     
  42 C42          -13.7312     2.2151     8.2478 C.2     
  43 O43          -13.6143     2.2951     9.4523 O.2     
  44 N44          -11.4879     1.2905     8.2912 N.am    
  45 C45          -12.6037     1.6594     7.4165 C.3     
  46 C46          -13.0898     0.4214     6.6602 C.3     
  47 C47          -12.0000    -0.0651     5.7400 C.2     
  48 O48          -10.9821     0.5743     5.6181 O.2     
  49 O49          -12.1602    -1.2088     5.0559 O.3     
  50 C50          -17.2698     2.9725     7.7301 C.2     
  51 O51          -17.2824     2.4380     6.6416 O.2     
  52 N52          -14.8696     2.6232     7.6527 N.am    
  53 C53          -15.9657     3.1633     8.4608 C.3     
  54 C54          -15.7317     4.6554     8.7054 C.3     
  55 C55          -14.3520     4.8588     9.3347 C.3     
  56 O56          -15.7966     5.3577     7.4626 O.3     
  57 C57          -20.6831     4.2431     8.0431 C.2     
  58 O58          -20.3635     5.0542     8.8862 O.2     
  59 N59          -18.4221     3.3959     8.2864 N.am    
  60 C60          -19.6899     3.2104     7.5761 C.3     
  61 C61          -20.2360     1.8106     7.8644 C.3     
  62 C62          -19.2871     0.7625     7.2794 C.3     
  63 C63          -19.8332    -0.6373     7.5677 C.3     
  64 N64          -18.9247    -1.6408     7.0076 N.pl3   
  65 C65          -19.2102    -2.9788     7.1437 C.2     
  66 N66          -20.2891    -3.3544     7.7711 N.2     
  67 N67          -18.3576    -3.9206     6.6180 N.pl3   
  68 C68          -24.2918     4.7543     7.7610 C.2     
  69 O69          -24.4656     3.6567     7.2751 O.2     
  70 N70          -21.9266     4.2653     7.5238 N.am    
  71 C71          -22.8922     5.2693     7.9778 C.3     
  72 C72          -22.6956     6.5619     7.1832 C.3     
  73 C73          -21.3197     7.1512     7.5003 C.3     
  74 C74          -21.1261     8.4244     6.7176 C.2     
  75 O75          -22.0023     8.8214     5.9790 O.2     
  76 N76          -19.9792     9.1219     6.8385 N.am    
  77 C77          -27.6594     6.1762     7.7640 C.2     
  78 O78          -27.2402     7.3118     7.8385 O.2     
  79 N79          -25.3503     5.5133     8.1071 N.am    
  80 C80          -26.7109     5.0127     7.8963 C.3     
  81 C81          -27.1267     4.1486     9.0885 C.3     
  82 C82          -26.2415     2.9022     9.1484 C.3     
  83 C83          -26.6512     2.0511    10.3227 C.2     
  84 O84          -27.5615     2.4065    11.0410 O.2     
  85 N85          -26.0059     0.8950    10.5748 N.am    
  86 C86          -31.2836     6.6498     7.8275 C.2     
  87 O87          -31.4829     5.5067     8.1803 O.2     
  88 N88          -28.9736     5.9548     7.5630 N.am    
  89 C89          -29.8957     7.0859     7.4344 C.3     
  90 C90          -29.9058     7.5734     5.9842 C.3     
  91 C91          -28.5483     8.1234     5.6296 C.ar    
  92 C92          -27.5823     7.2882     5.0995 C.ar    
  93 C93          -26.3369     7.7899     4.7740 C.ar    
  94 C94          -26.0562     9.1329     4.9791 C.ar    
  95 O95          -24.8320     9.6289     4.6593 O.3     
  96 C96          -27.0273     9.9689     5.5107 C.ar    
  97 C97          -28.2728     9.4634     5.8297 C.ar    
  98 C98          -34.6677     7.9909     7.4926 C.2     
  99 O99          -34.3003     8.8874     6.7631 O.2     
 100 N100         -32.3034     7.5300     7.7870 N.am    
 101 C101         -33.6526     7.1060     8.1691 C.3     
 102 C102         -33.8111     7.2160     9.6868 C.3     
 103 C103         -32.8666     6.2259    10.3713 C.3     
 104 C104         -33.0251     6.3359    11.8891 C.3     
 105 N105         -32.1208     5.3879    12.5445 N.pl3   
 106 C106         -32.0871     5.3062    13.9165 C.2     
 107 N107         -32.8598     6.0723    14.6341 N.2     
 108 N108         -31.2384     4.4165    14.5316 N.pl3   
 109 C109         -38.2454     8.6537     7.8442 C.2     
 110 O110         -38.3221     8.0044     8.8657 O.2     
 111 N111         -35.9839     7.7859     7.6982 N.am    
 112 C112         -36.9707     8.6461     7.0405 C.3     
 113 C113         -37.2567     8.1124     5.6355 C.3     
 114 C114         -35.9919     8.2209     4.7814 C.3     
 115 C115         -36.2780     7.6872     3.3763 C.3     
 116 C116         -35.0132     7.7957     2.5223 C.3     
 117 N117         -35.2879     7.2833     1.1732 N.3     
 118 C118         -41.7002     9.7208     7.3068 C.2     
 119 O119         -41.5109     9.9303     6.1274 O.2     
 120 N120         -39.3003     9.3819     7.4278 N.am    
 121 C121         -40.5396     9.3892     8.2090 C.3     
 122 C122         -40.4381    10.4400     9.3165 C.3     
 123 C123         -39.3401    10.0370    10.3029 C.3     
 124 C124         -39.1532    11.1468    11.3393 C.3     
 125 C125         -39.7407     8.7408    11.0102 C.3     
 126 C126         -45.1212    10.8657     7.8091 C.2     
 127 O127         -45.1291    10.6907     9.0092 O.2     
 128 N128         -42.9487     9.7844     7.8107 N.am    
 129 C129         -44.0611    10.2135     6.9594 C.3     
 130 C130         -44.6558     8.9977     6.2460 C.3     
 131 C131         -45.7721     9.4544     5.3046 C.3     
 132 C132         -45.1735    10.2901     4.1714 C.3     
 133 C133         -46.4770     8.2298     4.7176 C.3     
 134 C134         -48.2697    12.6468     7.2821 C.2     
 135 O135         -48.3591    12.2635     6.1349 O.2     
 136 N136         -46.0606    11.6434     7.2353 N.am    
 137 C137         -47.0142    12.3774     8.0709 C.3     
 138 C138         -46.3922    13.7050     8.5087 C.3     
 139 C139         -45.1890    13.4307     9.4131 C.3     
 140 C140         -44.5670    14.7583     9.8509 C.3     
 141 C141         -43.3637    14.4840    10.7553 C.3     
 142 N142         -42.7665    15.7586    11.1756 N.3     
 143 C143         -51.2099    14.7881     7.6472 C.2     
 144 O144         -50.7353    15.3733     8.5918 O.2     
 145 N145         -49.2931    13.3138     7.8514 N.am    
 146 C146         -50.5136    13.5758     7.0846 C.3     
 147 C147         -51.4439    12.3646     7.1773 C.3     
 148 O148         -51.8754    12.1977     8.5293 O.3     
 149 O149         -52.3573    15.2178     7.0990 O.3     
 150 C150           8.0699     7.9569    17.7444 C.2     
 151 O151           7.6330     7.8614    18.8718 O.2     
 152 C152          24.4666    12.7910    25.4234 C.3     
 153 C153          23.0088    12.3839    25.6470 C.3     
 154 C154          22.3293    12.1577    24.2949 C.3     
 155 C155          20.8715    11.7506    24.5185 C.3     
 156 C156          20.1920    11.5244    23.1665 C.3     
 157 C157          18.7343    11.1173    23.3901 C.3     
 158 C158          18.0548    10.8911    22.0380 C.3     
 159 C159          16.5970    10.4840    22.2616 C.3     
 160 C160          15.9175    10.2578    20.9096 C.3     
 161 C161          14.4597     9.8507    21.1332 C.3     
 162 C162          13.7803     9.6245    19.7811 C.3     
 163 C163          12.3225     9.2174    20.0047 C.3     
 164 C164          11.6430     8.9912    18.6526 C.3     
 165 C165          10.1852     8.5841    18.8762 C.3     
 166 C166           9.5057     8.3579    17.5242 C.3     
 167 H167           7.6206     7.7808    15.7869 H       
 168 H168           5.8026     6.7036    17.8024 H       
 169 H169           3.9744     8.2792    17.2139 H       
 170 H170           6.5037     9.7419    18.0910 H       
 171 H171           4.8241    10.2009    18.4602 H       
 172 H172           5.5146     8.7159    19.1574 H       
 173 H173           4.8326     8.9367    15.0839 H       
 174 H174           3.6846     5.8920    16.5930 H       
 175 H175           4.2653     5.5182    13.7053 H       
 176 H176           3.0898     3.4796    15.6488 H       
 177 H177           3.2249     3.2567    13.8881 H       
 178 H178           4.6220     1.3100    15.0694 H       
 179 H179           6.2637     1.6487    15.1826 H       
 180 H180           1.9442     4.6152    12.6761 H       
 181 H181          -0.3313     5.8566    14.0210 H       
 182 H182          -0.8472     7.3519    12.1115 H       
 183 H183           0.7183     7.7719    12.8470 H       
 184 H184           0.6690     6.8619    11.3181 H       
 185 H185          -2.3284     5.6737    12.2207 H       
 186 H186          -2.6196     2.9056    11.7419 H       
 187 H187          -2.1162     3.6875    10.2242 H       
 188 H188          -4.5934     2.6700     9.9222 H       
 189 H189          -6.6040     4.5426    10.9113 H       
 190 H190          -5.8824     4.3397     7.9537 H       
 191 H191          -7.3435     5.1366     8.5848 H       
 192 H192          -5.9281     6.6815     9.9110 H       
 193 H193          -4.4670     5.8845     9.2799 H       
 194 H194          -5.1238     6.5082     6.9716 H       
 195 H195          -6.5849     7.3051     7.6027 H       
 196 H196          -4.3374     8.3925     8.9229 H       
 197 H197          -5.1971     9.7241     5.2507 H       
 198 H198          -3.5118    10.4975     8.1762 H       
 199 H199          -3.8808    11.0444     6.6310 H       
 200 H200          -8.8443     3.8518     9.5820 H       
 201 H201          -8.7899     1.0194     8.8733 H       
 202 H202         -10.3645     0.3378    10.6195 H       
 203 H203          -8.9186     1.0419    11.3823 H       
 204 H204         -10.9339     1.9518    12.2857 H       
 205 H205         -11.4276     0.3901     8.6468 H       
 206 H206         -12.2721     2.4140     6.7032 H       
 207 H207         -13.3412    -0.3642     7.3728 H       
 208 H208         -13.9728     0.6769     6.0745 H       
 209 H209         -11.4338    -1.4802     4.4782 H       
 210 H210         -14.9631     2.5592     6.6893 H       
 211 H211         -16.0046     2.6402     9.4163 H       
 212 H212         -16.4984     5.0377     9.3792 H       
 213 H213         -13.5853     4.4765     8.6609 H       
 214 H214         -14.1853     5.9218     9.5090 H       
 215 H215         -14.3026     4.3231    10.2827 H       
 216 H216         -15.1412     5.0689     6.8129 H       
 217 H217         -18.4120     3.8234     9.1570 H       
 218 H218         -19.5257     3.3227     6.5044 H       
 219 H219         -20.3164     1.6668     8.9419 H       
 220 H220         -21.2205     1.7037     7.4091 H       
 221 H221         -19.2067     0.9063     6.2019 H       
 222 H222         -18.3026     0.8693     7.7347 H       
 223 H223         -19.9136    -0.7811     8.6452 H       
 224 H224         -20.8178    -0.7441     7.1124 H       
 225 H225         -18.1217    -1.3613     6.5407 H       
 226 H226         -20.4906    -4.2984     7.8671 H       
 227 H227         -17.5546    -3.6410     6.1511 H       
 228 H228         -18.5590    -4.8645     6.7141 H       
 229 H229         -22.1823     3.6167     6.8494 H       
 230 H230         -22.7383     5.4678     9.0385 H       
 231 H231         -22.7616     6.3464     6.1168 H       
 232 H232         -23.4698     7.2784     7.4578 H       
 233 H233         -21.2537     7.3666     8.5667 H       
 234 H234         -20.5455     6.4347     7.2257 H       
 235 H235         -19.2784     8.8044     7.4293 H       
 236 H236         -19.8546     9.9414     6.3348 H       
 237 H237         -25.2113     6.3911     8.4957 H       
 238 H238         -26.7408     4.4142     6.9858 H       
 239 H239         -27.0118     4.7205    10.0093 H       
 240 H240         -28.1686     3.8492     8.9744 H       
 241 H241         -26.3564     2.3303     8.2276 H       
 242 H242         -25.1997     3.2016     9.2626 H       
 243 H243         -25.2778     0.6107    10.0003 H       
 244 H244         -26.2695     0.3472    11.3306 H       
 245 H245         -29.3088     5.0466     7.5035 H       
 246 H246         -29.5707     7.8957     8.0876 H       
 247 H247         -30.1446     6.7406     5.3227 H       
 248 H248         -30.6561     8.3556     5.8690 H       
 249 H249         -27.8013     6.2428     4.9400 H       
 250 H250         -25.5824     7.1370     4.3606 H       
 251 H251         -24.7652     9.9570     3.7521 H       
 252 H252         -26.8111    11.0147     5.6717 H       
 253 H253         -29.0306    10.1147     6.2395 H       
 254 H254         -32.1440     8.4443     7.5048 H       
 255 H255         -33.8094     6.0722     7.8614 H       
 256 H256         -33.5677     8.2297    10.0051 H       
 257 H257         -34.8404     6.9861     9.9623 H       
 258 H258         -33.1101     5.2122    10.0531 H       
 259 H259         -31.8374     6.4558    10.0959 H       
 260 H260         -32.7817     7.3496    12.2073 H       
 261 H261         -34.0544     6.1060    12.1646 H       
 262 H262         -31.5457     4.8177    12.0105 H       
 263 H263         -32.8360     6.0147    15.6021 H       
 264 H264         -30.6634     3.8464    13.9975 H       
 265 H265         -31.2146     4.3589    15.4996 H       
 266 H266         -36.2777     7.0689     8.2816 H       
 267 H267         -36.5790     9.6610     6.9709 H       
 268 H268         -37.5638     7.0684     5.6989 H       
 269 H269         -38.0545     8.6987     5.1795 H       
 270 H270         -35.6849     9.2649     4.7179 H       
 271 H271         -35.1942     7.6346     5.2374 H       
 272 H272         -36.5850     6.6432     3.4398 H       
 273 H273         -37.0758     8.2735     2.9204 H       
 274 H274         -34.7062     8.8397     2.4588 H       
 275 H275         -34.2154     7.2094     2.9782 H       
 276 H276         -36.0670     7.7682     0.7538 H       
 277 H277         -34.4673     7.3442     0.5893 H       
 278 H278         -39.2390     9.9011     6.6108 H       
 279 H279         -40.6944     8.4063     8.6539 H       
 280 H280         -40.1951    11.4078     8.8779 H       
 281 H281         -41.3910    10.5079     9.8414 H       
 282 H282         -38.4057     9.8826     9.7633 H       
 283 H283         -40.0876    11.3012    11.8789 H       
 284 H284         -38.3710    10.8596    12.0420 H       
 285 H285         -38.8678    12.0702    10.8354 H       
 286 H286         -39.8739     7.9501    10.2719 H       
 287 H287         -38.9585     8.4536    11.7130 H       
 288 H288         -40.6751     8.8952    11.5498 H       
 289 H289         -43.1106     9.5461     8.7369 H       
 290 H290         -43.6983    10.9273     6.2198 H       
 291 H291         -43.8771     8.4973     5.6704 H       
 292 H292         -45.0630     8.3066     6.9840 H       
 293 H293         -46.4915    10.0566     5.8593 H       
 294 H294         -44.3803     9.7244     3.6826 H       
 295 H295         -45.9509    10.5276     3.4452 H       
 296 H296         -44.7628    11.2138     4.5791 H       
 297 H297         -46.9035     7.6344     5.5249 H       
 298 H298         -47.2723     8.5552     4.0469 H       
 299 H299         -45.7575     7.6276     4.1629 H       
 300 H300         -46.1053    11.7171     6.2692 H       
 301 H301         -47.2587    11.7829     8.9511 H       
 302 H302         -46.0667    14.2611     7.6295 H       
 303 H303         -47.1318    14.2899     9.0553 H       
 304 H304         -45.5145    12.8746    10.2922 H       
 305 H305         -44.4494    12.8457     8.8664 H       
 306 H306         -44.2414    15.3144     8.9717 H       
 307 H307         -45.3066    15.3433    10.3975 H       
 308 H308         -43.6893    13.9279    11.6344 H       
 309 H309         -42.6241    13.8990    10.2086 H       
 310 H310         -41.9692    15.6043    11.7744 H       
 311 H311         -42.5152    16.3211    10.3765 H       
 312 H312         -49.2216    13.6205     8.7689 H       
 313 H313         -50.2554    13.7566     6.0412 H       
 314 H314         -52.3110    12.5226     6.5360 H       
 315 H315         -50.9104    11.4710     6.8532 H       
 316 H316         -52.4695    11.4465     8.6626 H       
 317 H317         -52.7670    15.9995     7.4943 H       
 318 H318          24.9862    11.9994    24.8835 H       
 319 H319          24.5014    13.7116    24.8408 H       
 320 H320          24.9507    12.9521    26.3866 H       
 321 H321          22.9739    11.4633    26.2296 H       
 322 H322          22.4892    13.1755    26.1869 H       
 323 H323          22.3642    13.0783    23.7123 H       
 324 H324          22.8489    11.3661    23.7551 H       
 325 H325          20.8367    10.8300    25.1012 H       
 326 H326          20.3519    12.5422    25.0584 H       
 327 H327          20.2269    12.4450    22.5839 H       
 328 H328          20.7117    10.7328    22.6266 H       
 329 H329          18.6994    10.1967    23.9727 H       
 330 H330          18.2147    11.9089    23.9300 H       
 331 H331          18.0896    11.8117    21.4554 H       
 332 H332          18.5744    10.0996    21.4981 H       
 333 H333          16.5621     9.5634    22.8442 H       
 334 H334          16.0774    11.2756    22.8015 H       
 335 H335          15.9524    11.1784    20.3269 H       
 336 H336          16.4371     9.4663    20.3697 H       
 337 H337          14.4249     8.9301    21.7158 H       
 338 H338          13.9401    10.6423    21.6730 H       
 339 H339          13.8151    10.5451    19.1985 H       
 340 H340          14.2999     8.8330    19.2412 H       
 341 H341          12.2876     8.2968    20.5873 H       
 342 H342          11.8029    10.0090    20.5446 H       
 343 H343          11.6778     9.9118    18.0700 H       
 344 H344          12.1626     8.1997    18.1127 H       
 345 H345          10.1504     7.6635    19.4589 H       
 346 H346           9.6656     9.3757    19.4161 H       
 347 H347          10.0253     7.5664    16.9843 H       
 348 H348           9.5406     9.2785    16.9415 H       
@<TRIPOS>BOND
   1    1    2 2
   2    1    4 1
   3    1   10 am
   4    3  150 am
   5    3    4 1
   6    3  167 1
   7    4    5 1
   8    4  168 1
   9    5    6 1
  10    5    7 1
  11    5  169 1
  12    6  170 1
  13    6  171 1
  14    6  172 1
  15    7  173 1
  16    8    9 2
  17    8   11 1
  18    8   18 am
  19   10   11 1
  20   10  174 1
  21   11   12 1
  22   11  175 1
  23   12   13 1
  24   12  176 1
  25   12  177 1
  26   13   14 2
  27   13   15 am
  28   15  178 1
  29   15  179 1
  30   16   17 2
  31   16   19 1
  32   16   23 am
  33   18   19 1
  34   18  180 1
  35   19   20 1
  36   19  181 1
  37   20  182 1
  38   20  183 1
  39   20  184 1
  40   21   22 2
  41   21   24 1
  42   21   27 am
  43   23   24 1
  44   23  185 1
  45   24  186 1
  46   24  187 1
  47   25   26 2
  48   25   28 1
  49   25   38 am
  50   27   28 1
  51   27  188 1
  52   28   29 1
  53   28  189 1
  54   29   30 1
  55   29  190 1
  56   29  191 1
  57   30   31 1
  58   30  192 1
  59   30  193 1
  60   31   32 1
  61   31  194 1
  62   31  195 1
  63   32   33 1
  64   32  196 1
  65   33   34 2
  66   33   35 1
  67   34  197 1
  68   35  198 1
  69   35  199 1
  70   36   37 2
  71   36   39 1
  72   36   44 am
  73   38   39 1
  74   38  200 1
  75   39   40 1
  76   39  201 1
  77   40   41 1
  78   40  202 1
  79   40  203 1
  80   41  204 1
  81   42   43 2
  82   42   45 1
  83   42   52 am
  84   44   45 1
  85   44  205 1
  86   45   46 1
  87   45  206 1
  88   46   47 1
  89   46  207 1
  90   46  208 1
  91   47   48 2
  92   47   49 1
  93   49  209 1
  94   50   51 2
  95   50   53 1
  96   50   59 am
  97   52   53 1
  98   52  210 1
  99   53   54 1
 100   53  211 1
 101   54   55 1
 102   54   56 1
 103   54  212 1
 104   55  213 1
 105   55  214 1
 106   55  215 1
 107   56  216 1
 108   57   58 2
 109   57   60 1
 110   57   70 am
 111   59   60 1
 112   59  217 1
 113   60   61 1
 114   60  218 1
 115   61   62 1
 116   61  219 1
 117   61  220 1
 118   62   63 1
 119   62  221 1
 120   62  222 1
 121   63   64 1
 122   63  223 1
 123   63  224 1
 124   64   65 1
 125   64  225 1
 126   65   66 2
 127   65   67 1
 128   66  226 1
 129   67  227 1
 130   67  228 1
 131   68   69 2
 132   68   71 1
 133   68   79 am
 134   70   71 1
 135   70  229 1
 136   71   72 1
 137   71  230 1
 138   72   73 1
 139   72  231 1
 140   72  232 1
 141   73   74 1
 142   73  233 1
 143   73  234 1
 144   74   75 2
 145   74   76 am
 146   76  235 1
 147   76  236 1
 148   77   78 2
 149   77   80 1
 150   77   88 am
 151   79   80 1
 152   79  237 1
 153   80   81 1
 154   80  238 1
 155   81   82 1
 156   81  239 1
 157   81  240 1
 158   82   83 1
 159   82  241 1
 160   82  242 1
 161   83   84 2
 162   83   85 am
 163   85  243 1
 164   85  244 1
 165   86   87 2
 166   86   89 1
 167   86  100 am
 168   88   89 1
 169   88  245 1
 170   89   90 1
 171   89  246 1
 172   90   91 1
 173   90  247 1
 174   90  248 1
 175   91   92 ar
 176   91   97 ar
 177   92   93 ar
 178   92  249 1
 179   93   94 ar
 180   93  250 1
 181   94   95 1
 182   94   96 ar
 183   95  251 1
 184   96   97 ar
 185   96  252 1
 186   97  253 1
 187   98   99 2
 188   98  101 1
 189   98  111 am
 190  100  101 1
 191  100  254 1
 192  101  102 1
 193  101  255 1
 194  102  103 1
 195  102  256 1
 196  102  257 1
 197  103  104 1
 198  103  258 1
 199  103  259 1
 200  104  105 1
 201  104  260 1
 202  104  261 1
 203  105  106 1
 204  105  262 1
 205  106  107 2
 206  106  108 1
 207  107  263 1
 208  108  264 1
 209  108  265 1
 210  109  110 2
 211  109  112 1
 212  109  120 am
 213  111  112 1
 214  111  266 1
 215  112  113 1
 216  112  267 1
 217  113  114 1
 218  113  268 1
 219  113  269 1
 220  114  115 1
 221  114  270 1
 222  114  271 1
 223  115  116 1
 224  115  272 1
 225  115  273 1
 226  116  117 1
 227  116  274 1
 228  116  275 1
 229  117  276 1
 230  117  277 1
 231  118  119 2
 232  118  121 1
 233  118  128 am
 234  120  121 1
 235  120  278 1
 236  121  122 1
 237  121  279 1
 238  122  123 1
 239  122  280 1
 240  122  281 1
 241  123  124 1
 242  123  125 1
 243  123  282 1
 244  124  283 1
 245  124  284 1
 246  124  285 1
 247  125  286 1
 248  125  287 1
 249  125  288 1
 250  126  127 2
 251  126  129 1
 252  126  136 am
 253  128  129 1
 254  128  289 1
 255  129  130 1
 256  129  290 1
 257  130  131 1
 258  130  291 1
 259  130  292 1
 260  131  132 1
 261  131  133 1
 262  131  293 1
 263  132  294 1
 264  132  295 1
 265  132  296 1
 266  133  297 1
 267  133  298 1
 268  133  299 1
 269  134  135 2
 270  134  137 1
 271  134  145 am
 272  136  137 1
 273  136  300 1
 274  137  138 1
 275  137  301 1
 276  138  139 1
 277  138  302 1
 278  138  303 1
 279  139  140 1
 280  139  304 1
 281  139  305 1
 282  140  141 1
 283  140  306 1
 284  140  307 1
 285  141  142 1
 286  141  308 1
 287  141  309 1
 288  142  310 1
 289  142  311 1
 290  143  144 2
 291  143  146 1
 292  143  149 1
 293  145  146 1
 294  145  312 1
 295  146  147 1
 296  146  313 1
 297  147  148 1
 298  147  314 1
 299  147  315 1
 300  148  316 1
 301  149  317 1
 302  150  151 2
 303  150  166 1
 304  152  153 1
 305  152  318 1
 306  152  319 1
 307  152  320 1
 308  153  154 1
 309  153  321 1
 310  153  322 1
 311  154  155 1
 312  154  323 1
 313  154  324 1
 314  155  156 1
 315  155  325 1
 316  155  326 1
 317  156  157 1
 318  156  327 1
 319  156  328 1
 320  157  158 1
 321  157  329 1
 322  157  330 1
 323  158  159 1
 324  158  331 1
 325  158  332 1
 326  159  160 1
 327  159  333 1
 328  159  334 1
 329  160  161 1
 330  160  335 1
 331  160  336 1
 332  161  162 1
 333  161  337 1
 334  161  338 1
 335  162  163 1
 336  162  339 1
 337  162  340 1
 338  163  164 1
 339  163  341 1
 340  163  342 1
 341  164  165 1
 342  164  343 1
 343  164  344 1
 344  165  166 1
 345  165  345 1
 346  165  346 1
 347  166  347 1
 348  166  348 1

#	End of record

