#	Name: ASD01810488
#	Creating user name:	WinNT
#	Creation time:	15. 06. 2019 19:24

#	Modifying user name:	WinNT
#	Modification time:	15. 06. 2019 19:24

#	Program:	/corina/corina34_cracker 3.40 0067  02.08.2006

@<TRIPOS>MOLECULE
ASD01810488
  40   41    0    0    0
SMALL
NO_CHARGES


@<TRIPOS>ATOM
   1 C1            -0.0169     1.3930     0.0097 C.ar    
   2 C2             1.1641     2.1061     0.2307 C.ar    
   3 C3             2.3683     1.4327     0.2254 C.ar    
   4 C4             2.3577     0.0488    -0.0033 C.ar    
   5 C5             1.1363    -0.5955    -0.2165 C.ar    
   6 N6             0.0091     0.0813    -0.2040 N.ar    
   7 C7            -3.7856     1.9810    -0.1015 C.3     
   8 C8            -2.4048     1.3864    -0.0803 C.2     
   9 C9            -1.3102     2.1041     0.0197 C.2     
  10 C10           -1.2863     3.5987     0.1438 C.3     
  11 C11           -2.6158     4.1947    -0.3259 C.3     
  12 N12           -3.7048     3.4010     0.2692 N.am    
  13 C13           -4.5922     3.9550     1.1191 C.2     
  14 O14           -4.5027     5.1317     1.4090 O.2     
  15 O15           -5.5777     3.2047     1.6468 O.3     
  16 C16            3.5821    -0.6936    -0.0186 C.1     
  17 N17            4.5534    -1.2826    -0.0307 N.1     
  18 C18           -6.4970     3.8677     2.5544 C.3     
  19 C19           -7.1993     5.0130     1.8223 C.3     
  20 C20           -7.5396     2.8627     3.0483 C.3     
  21 C21           -5.7207     4.4259     3.7488 C.3     
  22 H22            1.1348     3.1718     0.4032 H       
  23 H23            3.2967     1.9584     0.3930 H       
  24 H24            1.1179    -1.6607    -0.3934 H       
  25 H25           -4.2067     1.8883    -1.1026 H       
  26 H26           -4.4199     1.4546     0.6117 H       
  27 H27           -2.3085     0.3130    -0.1515 H       
  28 H28           -1.1170     3.8713     1.1855 H       
  29 H29           -0.4764     3.9982    -0.4667 H       
  30 H30           -2.6922     5.2308     0.0038 H       
  31 H31           -2.6772     4.1477    -1.4131 H       
  32 H32           -7.7523     4.6153     0.9713 H       
  33 H33           -7.8894     5.5106     2.5036 H       
  34 H34           -6.4566     5.7289     1.4704 H       
  35 H35           -7.0392     2.0468     3.5699 H       
  36 H36           -8.2297     3.3604     3.7296 H       
  37 H37           -8.0926     2.4651     2.1974 H       
  38 H38           -4.9780     5.1419     3.3969 H       
  39 H39           -6.4108     4.9236     4.4301 H       
  40 H40           -5.2204     3.6100     4.2704 H       
@<TRIPOS>BOND
   1    1    2 ar
   2    1    6 ar
   3    1    9 1
   4    2    3 ar
   5    2   22 1
   6    3    4 ar
   7    3   23 1
   8    4    5 ar
   9    4   16 1
  10    5    6 ar
  11    5   24 1
  12    7    8 1
  13    7   12 1
  14    7   25 1
  15    7   26 1
  16    8    9 2
  17    8   27 1
  18    9   10 1
  19   10   11 1
  20   10   28 1
  21   10   29 1
  22   11   12 1
  23   11   30 1
  24   11   31 1
  25   12   13 am
  26   13   14 2
  27   13   15 1
  28   15   18 1
  29   16   17 3
  30   18   19 1
  31   18   21 1
  32   18   20 1
  33   19   32 1
  34   19   33 1
  35   19   34 1
  36   20   35 1
  37   20   36 1
  38   20   37 1
  39   21   38 1
  40   21   39 1
  41   21   40 1

#	End of record

