#	Name: ASD08830079
#	Creating user name:	WinNT
#	Creation time:	15. 06. 2019 21:19

#	Modifying user name:	WinNT
#	Modification time:	15. 06. 2019 21:19

#	Program:	/corina/corina34_cracker 3.40 0067  02.08.2006

@<TRIPOS>MOLECULE
ASD08830079
  53   56    0    0    0
SMALL
NO_CHARGES


@<TRIPOS>ATOM
   1 C1            -0.0179     1.4664     0.0101 C.ar    
   2 C2             0.0021    -0.0041     0.0020 C.2     
   3 C3            -1.2926    -0.7753     0.0102 C.3     
   4 C4            -0.9927    -2.2755    -0.0007 C.3     
   5 N5            -2.2547    -3.0273     0.0073 N.3     
   6 O6             1.0604    -0.5961    -0.0113 O.2     
   7 C7             1.1774     2.1721     0.0025 C.ar    
   8 C8             1.1498     3.5742     0.0103 C.ar    
   9 C9            -0.0981     4.2488     0.0258 C.ar    
  10 C10           -1.2933     3.5050     0.0332 C.ar    
  11 C11           -1.2503     2.1495     0.0197 C.ar    
  12 C12            2.3394     4.3244     0.0035 C.ar    
  13 C13            2.2783     5.6843     0.0118 C.ar    
  14 C14            1.0525     6.3463     0.0274 C.ar    
  15 C15           -0.1196     5.6527     0.0339 C.ar    
  16 C16           -2.0181    -4.4563    -0.2409 C.3     
  17 C17           -3.2025    -2.4756    -0.9710 C.3     
  18 C18           -4.5287    -3.2336    -0.8758 C.3     
  19 N19           -4.2921    -4.6626    -1.1240 N.3     
  20 C20           -3.3444    -5.2143    -0.1457 C.3     
  21 C21           -5.5542    -5.4144    -1.1160 C.3     
  22 C22           -5.3073    -6.8159    -1.6119 C.ar    
  23 C23           -4.9738    -7.8165    -0.7183 C.ar    
  24 C24           -5.4198    -7.1021    -2.9596 C.ar    
  25 C25           -5.1933    -8.3876    -3.4144 C.ar    
  26 C26           -4.8538    -9.3869    -2.5216 C.ar    
  27 C27           -4.7472    -9.1020    -1.1731 C.ar    
  28 H28           -1.8592    -0.5245     0.9070 H       
  29 H29           -1.8762    -0.5150    -0.8728 H       
  30 H30           -0.4261    -2.5263    -0.8975 H       
  31 H31           -0.4091    -2.5358     0.8824 H       
  32 H32            2.1205     1.6460    -0.0090 H       
  33 H33           -2.2456     4.0144     0.0450 H       
  34 H34           -2.1719     1.5866     0.0252 H       
  35 H35            3.2965     3.8242    -0.0079 H       
  36 H36            3.1931     6.2583     0.0065 H       
  37 H37            1.0314     7.4261     0.0344 H       
  38 H38           -1.0618     6.1804     0.0456 H       
  39 H39           -1.5951    -4.5872    -1.2368 H       
  40 H40           -1.3232    -4.8445     0.5037 H       
  41 H41           -3.3710    -1.4199    -0.7586 H       
  42 H42           -2.7929    -2.5841    -1.9752 H       
  43 H43           -4.9518    -3.1027     0.1202 H       
  44 H44           -5.2237    -2.8454    -1.6204 H       
  45 H45           -3.1758    -6.2700    -0.3580 H       
  46 H46           -3.7540    -5.1058     0.8585 H       
  47 H47           -5.9480    -5.4524    -0.1003 H       
  48 H48           -6.2755    -4.9204    -1.7671 H       
  49 H49           -4.8899    -7.5937     0.3352 H       
  50 H50           -5.6850    -6.3213    -3.6571 H       
  51 H51           -5.2819    -8.6114    -4.4673 H       
  52 H52           -4.6772   -10.3914    -2.8769 H       
  53 H53           -4.4820    -9.8827    -0.4756 H       
@<TRIPOS>BOND
   1    1    2 1
   2    1    7 ar
   3    1   11 ar
   4    2    3 1
   5    2    6 2
   6    3    4 1
   7    3   28 1
   8    3   29 1
   9    4    5 1
  10    4   30 1
  11    4   31 1
  12    5   16 1
  13    5   17 1
  14    7    8 ar
  15    7   32 1
  16    8    9 ar
  17    8   12 ar
  18    9   10 ar
  19    9   15 ar
  20   10   11 ar
  21   10   33 1
  22   11   34 1
  23   12   13 ar
  24   12   35 1
  25   13   14 ar
  26   13   36 1
  27   14   15 ar
  28   14   37 1
  29   15   38 1
  30   16   20 1
  31   16   39 1
  32   16   40 1
  33   17   18 1
  34   17   41 1
  35   17   42 1
  36   18   19 1
  37   18   43 1
  38   18   44 1
  39   19   20 1
  40   19   21 1
  41   20   45 1
  42   20   46 1
  43   21   22 1
  44   21   47 1
  45   21   48 1
  46   22   23 ar
  47   22   24 ar
  48   23   27 ar
  49   23   49 1
  50   24   25 ar
  51   24   50 1
  52   25   26 ar
  53   25   51 1
  54   26   27 ar
  55   26   52 1
  56   27   53 1

#	End of record

