#	Name: ASD00311500
#	Creating user name:	WinNT
#	Creation time:	15. 06. 2019 18:34

#	Modifying user name:	WinNT
#	Modification time:	15. 06. 2019 18:34

#	Program:	/corina/corina34_cracker 3.40 0067  02.08.2006

@<TRIPOS>MOLECULE
ASD00311500
  49   53    0    0    0
SMALL
NO_CHARGES


@<TRIPOS>ATOM
   1 C1            -0.0167     1.3777     0.0096 C.2     
   2 C2             0.0021    -0.0041     0.0020 C.2     
   3 C3             1.2588    -0.6767    -0.0136 C.2     
   4 C4             2.4315     0.0672    -0.0208 C.2     
   5 C5             2.3574     1.4751    -0.0125 C.2     
   6 N6             1.1648     2.0902     0.0022 N.am    
   7 C7            -1.3433    -0.5752     0.0118 C.2     
   8 C8            -2.3228     0.3262     0.0260 C.2     
   9 S9            -1.6793     1.9562     0.0358 S.3     
  10 O10            3.3822     2.1373    -0.0187 O.2     
  11 C11            3.7477    -0.6121    -0.0365 C.ar    
  12 C12            4.5934    -0.4746    -1.1370 C.ar    
  13 C13            5.8183    -1.1099    -1.1457 C.ar    
  14 C14            6.2078    -1.8823    -0.0661 C.ar    
  15 C15            5.3733    -2.0224     1.0284 C.ar    
  16 C16            4.1486    -1.3871     1.0516 C.ar    
  17 C17           -1.5956    -2.0347     0.0064 C.ar    
  18 C18           -2.4706    -2.5941     0.9371 C.ar    
  19 C19           -2.7054    -3.9565     0.9312 C.ar    
  20 C20           -2.0641    -4.7708    -0.0094 C.ar    
  21 C21           -1.1903    -4.2070    -0.9377 C.ar    
  22 C22           -0.9620    -2.8486    -0.9339 C.ar    
  23 C23           -2.2161    -6.9744     1.1582 C.ar    
  24 C24           -2.3135    -6.2320    -0.0179 C.ar    
  25 C25           -2.6506    -6.8883    -1.2054 C.ar    
  26 C26           -2.8740    -8.2537    -1.1602 C.ar    
  27 C27           -2.7576    -8.9188     0.0467 C.ar    
  28 N28           -2.4375    -8.2727     1.1514 N.ar    
  29 O29           -3.5570    -4.5040     1.8370 O.3     
  30 C30           -4.1755    -3.6128     2.7672 C.3     
  31 O31            1.3087    -2.0292    -0.0209 O.3     
  32 H32            1.1326     3.0597     0.0077 H       
  33 H33           -3.3754     0.0847     0.0344 H       
  34 H34            4.2901     0.1275    -1.9807 H       
  35 H35            6.4741    -1.0043    -1.9973 H       
  36 H36            7.1671    -2.3782    -0.0778 H       
  37 H37            5.6827    -2.6270     1.8681 H       
  38 H38            3.5001    -1.4933     1.9086 H       
  39 H39           -2.9640    -1.9637     1.6621 H       
  40 H40           -0.6954    -4.8352    -1.6635 H       
  41 H41           -0.2883    -2.4131    -1.6571 H       
  42 H42           -1.9520    -6.4813     2.0821 H       
  43 H43           -2.7350    -6.3438    -2.1343 H       
  44 H44           -3.1367    -8.7938    -2.0578 H       
  45 H45           -2.9313    -9.9840     0.0854 H       
  46 H46           -4.7621    -2.8713     2.2248 H       
  47 H47           -4.8291    -4.1777     3.4319 H       
  48 H48           -3.4072    -3.1097     3.3543 H       
  49 H49            2.2059    -2.3896    -0.0314 H       
@<TRIPOS>BOND
   1    1    2 2
   2    1    6 1
   3    1    9 1
   4    2    3 1
   5    2    7 1
   6    3    4 2
   7    3   31 1
   8    4    5 1
   9    4   11 1
  10    5    6 am
  11    5   10 2
  12    6   32 1
  13    7    8 2
  14    7   17 1
  15    8    9 1
  16    8   33 1
  17   11   12 ar
  18   11   16 ar
  19   12   13 ar
  20   12   34 1
  21   13   14 ar
  22   13   35 1
  23   14   15 ar
  24   14   36 1
  25   15   16 ar
  26   15   37 1
  27   16   38 1
  28   17   18 ar
  29   17   22 ar
  30   18   19 ar
  31   18   39 1
  32   19   20 ar
  33   19   29 1
  34   20   21 ar
  35   20   24 1
  36   21   22 ar
  37   21   40 1
  38   22   41 1
  39   23   24 ar
  40   23   28 ar
  41   23   42 1
  42   24   25 ar
  43   25   26 ar
  44   25   43 1
  45   26   27 ar
  46   26   44 1
  47   27   28 ar
  48   27   45 1
  49   29   30 1
  50   30   46 1
  51   30   47 1
  52   30   48 1
  53   31   49 1

#	End of record

