#	Name: ASD03091223
#	Creating user name:	WinNT
#	Creation time:	15. 06. 2019 20:30

#	Modifying user name:	WinNT
#	Modification time:	15. 06. 2019 20:30

#	Program:	/corina/corina34_cracker 3.40 0067  02.08.2006

@<TRIPOS>MOLECULE
ASD03091223
  58   63    0    0    0
SMALL
NO_CHARGES


@<TRIPOS>ATOM
   1 N1            -0.2290     1.0049     0.3962 N.2     
   2 C2             0.0330    -0.2681     0.2487 C.2     
   3 N3             1.2903    -0.7477    -0.0029 N.am    
   4 C4             2.3382     0.1020    -0.1115 C.2     
   5 C5             2.0669     1.5381     0.0502 C.ar    
   6 C6             3.0786     2.4911    -0.0434 C.ar    
   7 C7             2.7666     3.8305     0.1178 C.ar    
   8 C8             1.4526     4.2239     0.3721 C.ar    
   9 C9             0.4507     3.3015     0.4671 C.ar    
  10 C10            0.7369     1.9419     0.3081 C.ar    
  11 O11            3.4628    -0.3073    -0.3342 O.2     
  12 C12            1.5028    -2.1892    -0.1552 C.3     
  13 C13            1.6775    -2.8274     1.2243 C.3     
  14 C14            1.7627    -4.3536     1.2910 C.3     
  15 C15            3.0153    -3.5066     1.5243 C.3     
  16 C16           -1.0798    -1.2335     0.3594 C.ar    
  17 C17           -1.8742    -1.2584     1.5077 C.ar    
  18 C18           -2.9120    -2.1620     1.6056 C.ar    
  19 C19           -3.1662    -3.0449     0.5658 C.ar    
  20 C20           -2.3805    -3.0236    -0.5754 C.ar    
  21 C21           -1.3446    -2.1201    -0.6860 C.ar    
  22 F22           -4.1831    -3.9286     0.6666 F       
  23 Cl23          -3.9008    -2.1950     3.0320 Cl      
  24 N24            6.0763     6.2200    -1.1741 N.3     
  25 C25            6.2233     5.1639    -0.1609 C.3     
  26 C26            5.0748     4.1711    -0.2491 C.3     
  27 N27            3.7746     4.7943     0.0257 N.3     
  28 C28            3.4531     5.7961    -1.0004 C.3     
  29 C29            3.8902     7.1807    -0.5458 C.3     
  30 C30            5.3913     7.3830    -0.5920 C.3     
  31 C31            5.5163     5.8143    -2.4454 C.3     
  32 C32            4.0679     5.3707    -2.3212 C.3     
  33 H33            4.0965     2.1882    -0.2395 H       
  34 H34            1.2248     5.2723     0.4959 H       
  35 H35           -0.5617     3.6213     0.6650 H       
  36 H36            0.6413    -2.6328    -0.6543 H       
  37 H37            2.3981    -2.3634    -0.7521 H       
  38 H38            1.1774    -2.3149     2.0462 H       
  39 H39            1.3191    -4.8451     2.1568 H       
  40 H40            1.6944    -4.9030     0.3520 H       
  41 H41            3.7710    -3.4986     0.7388 H       
  42 H42            3.3957    -3.4408     2.5436 H       
  43 H43           -1.6763    -0.5719     2.3176 H       
  44 H44           -2.5826    -3.7132    -1.3817 H       
  45 H45           -0.7361    -2.1015    -1.5781 H       
  46 H46            7.1648     4.6391    -0.3232 H       
  47 H47            6.2315     5.6163     0.8307 H       
  48 H48            5.0556     3.7415    -1.2507 H       
  49 H49            5.2428     3.3718     0.4727 H       
  50 H50            2.3711     5.8089    -1.1317 H       
  51 H51            3.4174     7.9245    -1.1871 H       
  52 H52            3.5479     7.3369     0.4772 H       
  53 H53            5.7602     7.5430     0.4211 H       
  54 H54            5.6132     8.2645    -1.1935 H       
  55 H55            5.5709     6.6529    -3.1395 H       
  56 H56            6.1058     4.9887    -2.8441 H       
  57 H57            4.0220     4.2845    -2.3999 H       
  58 H58            3.4923     5.8080    -3.1370 H       
@<TRIPOS>BOND
   1    1    2 2
   2    1   10 1
   3    2    3 1
   4    2   16 1
   5    3    4 am
   6    3   12 1
   7    4    5 1
   8    4   11 2
   9    5    6 ar
  10    5   10 ar
  11    6    7 ar
  12    6   33 1
  13    7    8 ar
  14    7   27 1
  15    8    9 ar
  16    8   34 1
  17    9   10 ar
  18    9   35 1
  19   12   13 1
  20   12   36 1
  21   12   37 1
  22   13   14 1
  23   13   15 1
  24   13   38 1
  25   14   15 1
  26   14   39 1
  27   14   40 1
  28   15   41 1
  29   15   42 1
  30   16   17 ar
  31   16   21 ar
  32   17   18 ar
  33   17   43 1
  34   18   19 ar
  35   18   23 1
  36   19   20 ar
  37   19   22 1
  38   20   21 ar
  39   20   44 1
  40   21   45 1
  41   24   25 1
  42   24   30 1
  43   24   31 1
  44   25   26 1
  45   25   46 1
  46   25   47 1
  47   26   27 1
  48   26   48 1
  49   26   49 1
  50   27   28 1
  51   28   29 1
  52   28   32 1
  53   28   50 1
  54   29   30 1
  55   29   51 1
  56   29   52 1
  57   30   53 1
  58   30   54 1
  59   31   32 1
  60   31   55 1
  61   31   56 1
  62   32   57 1
  63   32   58 1

#	End of record

