#	Name: ASD01913761
#	Creating user name:	WinNT
#	Creation time:	15. 06. 2019 20:02

#	Modifying user name:	WinNT
#	Modification time:	15. 06. 2019 20:02

#	Program:	/corina/corina34_cracker 3.40 0067  02.08.2006

@<TRIPOS>MOLECULE
ASD01913761
  47   48    0    0    0
SMALL
NO_CHARGES


@<TRIPOS>ATOM
   1 O1            -0.0163     1.3489     0.0095 O.3     
   2 C2             0.0021    -0.0041     0.0020 C.ar    
   3 C3            -1.2097    -0.7156     0.0098 C.ar    
   4 C4            -1.1738    -2.1110     0.0019 C.ar    
   5 C5             0.0751    -2.7404    -0.0134 C.ar    
   6 C6             1.2324    -1.9570    -0.0202 C.ar    
   7 N7             1.1610    -0.6428    -0.0179 N.ar    
   8 C8             0.1697    -4.2138    -0.0217 C.2     
   9 N9             1.3776    -4.8115    -0.0365 N.am    
  10 O10           -0.8420    -4.8879    -0.0153 O.2     
  11 C11            1.2480     2.0149     0.0010 C.3     
  12 C12            1.0303     3.5061     0.0111 C.ar    
  13 C13            0.9392     4.2020     1.2068 C.ar    
  14 C14            0.7397     5.5692     1.1768 C.ar    
  15 N15            0.6360     6.2107     0.0293 N.ar    
  16 C16            0.7177     5.5816    -1.1267 C.ar    
  17 C17            0.9222     4.2156    -1.1752 C.ar    
  18 C18            1.4715    -6.2734    -0.0447 C.3     
  19 C19           -2.4614    -0.0202     0.0259 C.1     
  20 N20           -3.4544     0.5315     0.0387 N.1     
  21 C21            2.9436    -6.6899    -0.0611 C.3     
  22 C22            3.0416    -8.2167    -0.0698 C.3     
  23 C23            2.3424    -8.7656    -1.3150 C.3     
  24 C24            4.5138    -8.6332    -0.0862 C.3     
  25 C25            2.3667    -8.7782     1.1833 C.3     
  26 H26           -2.0860    -2.6892     0.0079 H       
  27 H27            2.1997    -2.4372    -0.0317 H       
  28 H28            2.1848    -4.2736    -0.0416 H       
  29 H29            1.8174     1.7249     0.8840 H       
  30 H30            1.8004     1.7345    -0.8959 H       
  31 H31            1.0226     3.6821     2.1498 H       
  32 H32            0.6676     6.1186     2.1038 H       
  33 H33            0.6277     6.1408    -2.0463 H       
  34 H34            0.9886     3.7060    -2.1252 H       
  35 H35            0.9906    -6.6734     0.8480 H       
  36 H36            0.9733    -6.6645    -0.9319 H       
  37 H37            3.4244    -6.2899    -0.9538 H       
  38 H38            3.4417    -6.2989     0.8260 H       
  39 H39            2.8232    -8.3656    -2.2077 H       
  40 H40            2.4122    -9.8534    -1.3212 H       
  41 H41            1.2936    -8.4689    -1.3033 H       
  42 H42            5.0119    -8.2421     0.8010 H       
  43 H43            4.5836    -9.7209    -0.0923 H       
  44 H44            4.9946    -8.2332    -0.9789 H       
  45 H45            1.3179    -8.4815     1.1950 H       
  46 H46            2.4365    -9.8659     1.1771 H       
  47 H47            2.8648    -8.3872     2.0705 H       
@<TRIPOS>BOND
   1    1    2 1
   2    1   11 1
   3    2    3 ar
   4    2    7 ar
   5    3    4 ar
   6    3   19 1
   7    4    5 ar
   8    4   26 1
   9    5    6 ar
  10    5    8 1
  11    6    7 ar
  12    6   27 1
  13    8    9 am
  14    8   10 2
  15    9   18 1
  16    9   28 1
  17   11   12 1
  18   11   29 1
  19   11   30 1
  20   12   13 ar
  21   12   17 ar
  22   13   14 ar
  23   13   31 1
  24   14   15 ar
  25   14   32 1
  26   15   16 ar
  27   16   17 ar
  28   16   33 1
  29   17   34 1
  30   18   21 1
  31   18   35 1
  32   18   36 1
  33   19   20 3
  34   21   22 1
  35   21   37 1
  36   21   38 1
  37   22   23 1
  38   22   24 1
  39   22   25 1
  40   23   39 1
  41   23   40 1
  42   23   41 1
  43   24   42 1
  44   24   43 1
  45   24   44 1
  46   25   45 1
  47   25   46 1
  48   25   47 1

#	End of record

