#	Name: ASD02198431
#	Creating user name:	WinNT
#	Creation time:	15. 06. 2019 20:19

#	Modifying user name:	WinNT
#	Modification time:	15. 06. 2019 20:19

#	Program:	/corina/corina34_cracker 3.40 0067  02.08.2006

@<TRIPOS>MOLECULE
ASD02198431
  39   41    0    0    0
SMALL
NO_CHARGES


@<TRIPOS>ATOM
   1 C1            -0.4466     2.1669    -0.2935 C.ar    
   2 S2            -0.4561     0.4141    -0.1140 S.o2    
   3 N3             0.0820    -0.2278    -1.5425 N.am    
   4 C4             1.3568     0.0860    -2.0113 C.ar    
   5 C5             1.5859     0.2372    -3.3972 C.ar    
   6 C6             2.8887     0.5567    -3.8521 C.ar    
   7 C7             3.9309     0.7178    -2.9261 C.ar    
   8 C8             3.6802     0.5642    -1.5810 C.ar    
   9 C9             2.3968     0.2554    -1.1256 C.ar    
  10 N10            0.5933     0.0827    -4.2777 N.ar    
  11 C11            0.7959     0.2206    -5.5654 C.ar    
  12 C12            2.0522     0.5342    -6.0800 C.ar    
  13 C13            3.1109     0.7062    -5.2348 C.ar    
  14 O14            0.5300     0.1053     0.8614 O.2     
  15 O15           -1.8188     0.0308     0.0101 O.2     
  16 C16           -1.2962     2.7735    -1.1993 C.ar    
  17 O17            4.6912     0.7208    -0.6867 O.3     
  18 C18            5.9799     1.0424    -1.2140 C.3     
  19 C19           -1.2888     4.1488    -1.3402 C.ar    
  20 C20           -0.4321     4.9173    -0.5748 C.ar    
  21 C21            0.4172     4.3106     0.3320 C.ar    
  22 C22            0.4066     2.9360     0.4760 C.ar    
  23 C23           -2.2304     1.9356    -2.0339 C.3     
  24 H24           -0.4898    -0.8221    -2.0531 H       
  25 H25            4.9263     0.9610    -3.2674 H       
  26 H26            2.2200     0.1393    -0.0665 H       
  27 H27           -0.0325     0.0873    -6.2453 H       
  28 H28            2.1884     0.6415    -7.1460 H       
  29 H29            4.0916     0.9495    -5.6161 H       
  30 H30            6.6935     1.1392    -0.3957 H       
  31 H31            6.3050     0.2496    -1.8877 H       
  32 H32            5.9241     1.9837    -1.7607 H       
  33 H33           -1.9522     4.6227    -2.0485 H       
  34 H34           -0.4257     5.9916    -0.6853 H       
  35 H35            1.0868     4.9110     0.9299 H       
  36 H36            1.0700     2.4621     1.1843 H       
  37 H37           -3.1987     1.8678    -1.5380 H       
  38 H38           -2.3553     2.3971    -3.0134 H       
  39 H39           -1.8128     0.9359    -2.1538 H       
@<TRIPOS>BOND
   1    1    2 1
   2    1   16 ar
   3    1   22 ar
   4    2    3 am
   5    2   14 2
   6    2   15 2
   7    3    4 1
   8    3   24 1
   9    4    5 ar
  10    4    9 ar
  11    5    6 ar
  12    5   10 ar
  13    6    7 ar
  14    6   13 ar
  15    7    8 ar
  16    7   25 1
  17    8    9 ar
  18    8   17 1
  19    9   26 1
  20   10   11 ar
  21   11   12 ar
  22   11   27 1
  23   12   13 ar
  24   12   28 1
  25   13   29 1
  26   16   19 ar
  27   16   23 1
  28   17   18 1
  29   18   30 1
  30   18   31 1
  31   18   32 1
  32   19   20 ar
  33   19   33 1
  34   20   21 ar
  35   20   34 1
  36   21   22 ar
  37   21   35 1
  38   22   36 1
  39   23   37 1
  40   23   38 1
  41   23   39 1

#	End of record

