#	Name: ASD01880374
#	Creating user name:	WinNT
#	Creation time:	15. 06. 2019 19:40

#	Modifying user name:	WinNT
#	Modification time:	15. 06. 2019 19:40

#	Program:	/corina/corina34_cracker 3.40 0067  02.08.2006

@<TRIPOS>MOLECULE
ASD01880374
  36   37    0    0    0
SMALL
NO_CHARGES


@<TRIPOS>ATOM
   1 C1            -0.0158     1.3166     0.0093 C.ar    
   2 N2             0.0021    -0.0041     0.0020 N.ar    
   3 C3             1.1445    -0.6746    -0.0125 C.ar    
   4 C4             2.3648     0.0485    -0.0202 C.ar    
   5 C5             2.2891     1.4440    -0.0120 C.ar    
   6 N6             1.0857     2.0309     0.0026 N.ar    
   7 C7             3.7373    -0.4211    -0.0353 C.2     
   8 C8             4.6485     0.5323    -0.0385 C.2     
   9 S9             3.9102     2.1228    -0.0232 S.3     
  10 C10            6.1352     0.2862    -0.0535 C.3     
  11 N11            1.1474    -2.0578    -0.0195 N.pl3   
  12 C12           -0.1198    -2.7930    -0.0109 C.3     
  13 O13            6.5928     0.2157    -1.4054 O.3     
  14 C14            0.1629    -4.2966    -0.0212 C.3     
  15 C15           -1.3204    -5.8608     1.1253 C.2     
  16 C16           -1.1341    -5.0525     0.1114 C.2     
  17 C17            7.9971    -0.0163    -1.5324 C.3     
  18 C18            0.8333    -4.6728    -1.3174 C.2     
  19 C19            2.0257    -5.2151    -1.3048 C.2     
  20 H20           -0.9682     1.8258     0.0165 H       
  21 H21            3.9931    -1.4704    -0.0429 H       
  22 H22            6.6437     1.1022     0.4601 H       
  23 H23            6.3530    -0.6539     0.4533 H       
  24 H24            1.9884    -2.5410    -0.0301 H       
  25 H25           -0.6832    -2.5354     0.8859 H       
  26 H26           -0.7005    -2.5264    -0.8939 H       
  27 H27            0.8175    -4.5490     0.8130 H       
  28 H28           -2.2498    -6.4025     1.2204 H       
  29 H29           -0.5445    -5.9856     1.8662 H       
  30 H30           -1.9099    -4.9278    -0.6294 H       
  31 H31            8.2535    -0.9627    -1.0562 H       
  32 H32            8.2647    -0.0566    -2.5882 H       
  33 H33            8.5442     0.7933    -1.0495 H       
  34 H34            0.3307    -4.4954    -2.2567 H       
  35 H35            2.5284    -5.3926    -0.3655 H       
  36 H36            2.5062    -5.4847    -2.2337 H       
@<TRIPOS>BOND
   1    1    2 ar
   2    1    6 ar
   3    1   20 1
   4    2    3 ar
   5    3    4 ar
   6    3   11 1
   7    4    5 ar
   8    4    7 1
   9    5    6 ar
  10    5    9 1
  11    7    8 2
  12    7   21 1
  13    8    9 1
  14    8   10 1
  15   10   13 1
  16   10   22 1
  17   10   23 1
  18   11   12 1
  19   11   24 1
  20   12   14 1
  21   12   25 1
  22   12   26 1
  23   13   17 1
  24   14   18 1
  25   14   16 1
  26   14   27 1
  27   15   16 2
  28   15   28 1
  29   15   29 1
  30   16   30 1
  31   17   31 1
  32   17   32 1
  33   17   33 1
  34   18   19 2
  35   18   34 1
  36   19   35 1
  37   19   36 1

#	End of record

