#	Name: ASD01816382
#	Creating user name:	WinNT
#	Creation time:	15. 06. 2019 19:35

#	Modifying user name:	WinNT
#	Modification time:	15. 06. 2019 19:35

#	Program:	/corina/corina34_cracker 3.40 0067  02.08.2006

@<TRIPOS>MOLECULE
ASD01816382
  53   59    0    0    0
SMALL
NO_CHARGES


@<TRIPOS>ATOM
   1 C1            -0.0167     1.3813     0.0096 C.ar    
   2 C2             0.0021    -0.0041     0.0020 C.ar    
   3 C3             1.1983    -0.6909    -0.0131 C.ar    
   4 C4             2.4015     0.0059    -0.0208 C.ar    
   5 C5             2.3790     1.4106    -0.0130 C.ar    
   6 C6             1.1663     2.0917     0.0022 C.ar    
   7 N7             3.6052    -0.6771    -0.0354 N.pl3   
   8 C8             4.7970    -0.0585    -0.0430 C.2     
   9 C9             4.8999     1.3103    -0.0371 C.2     
  10 C10            3.6670     2.1302    -0.0215 C.2     
  11 C11            5.9971     2.2730    -0.0425 C.2     
  12 N12            5.4245     3.4961    -0.0315 N.am    
  13 N13            4.0322     3.3799    -0.0190 N.2     
  14 O14            7.1910     2.0231    -0.0546 O.2     
  15 C15            3.5778    -2.1419    -0.0425 C.3     
  16 C16            3.5552    -2.6370    -1.4657 C.ar    
  17 C17            4.7429    -2.8860    -2.1285 C.ar    
  18 C18            4.7254    -3.3394    -3.4331 C.ar    
  19 C19            3.5136    -3.5455    -4.0786 C.ar    
  20 C20            2.3227    -3.2950    -3.4103 C.ar    
  21 C21            2.3466    -2.8467    -2.1041 C.ar    
  22 N22            3.4925    -4.0052    -5.4028 N.pl3   
  23 C23            2.3876    -4.2462    -6.1441 C.2     
  24 C24            2.7940    -4.6752    -7.3615 C.2     
  25 C25            4.1930    -4.6975    -7.3654 C.2     
  26 N26            4.6126    -4.2906    -6.1944 N.2     
  27 C27            6.1196     4.6968    -0.0315 C.2     
  28 N28            7.4027     4.8034    -0.0475 N.2     
  29 S29            5.3736     6.2887    -0.0171 S.3     
  30 C30            6.9633     7.0485    -0.0281 C.ar    
  31 C31            7.9329     6.0422    -0.0458 C.ar    
  32 C32            7.3392     8.3905    -0.0248 C.ar    
  33 C33            8.6713     8.7374    -0.0354 C.ar    
  34 C34            9.6456     7.7495    -0.0495 C.ar    
  35 C35            9.2943     6.4217    -0.0573 C.ar    
  36 F36           10.2558     5.4728    -0.0705 F       
  37 H37           -0.9602     1.9068     0.0169 H       
  38 H38           -0.9289    -0.5515     0.0083 H       
  39 H39            1.2003    -1.7709    -0.0185 H       
  40 H40            1.1506     3.1715     0.0077 H       
  41 H41            5.6983    -0.6535    -0.0536 H       
  42 H42            4.4656    -2.5243     0.4612 H       
  43 H43            2.6860    -2.4911     0.4779 H       
  44 H44            5.6852    -2.7255    -1.6258 H       
  45 H45            5.6533    -3.5331    -3.9505 H       
  46 H46            1.3786    -3.4541    -3.9100 H       
  47 H47            1.4206    -2.6516    -1.5837 H       
  48 H48            1.3645    -4.1196    -5.8222 H       
  49 H49            2.1519    -4.9516    -8.1847 H       
  50 H50            4.8190    -4.9950    -8.1937 H       
  51 H51            6.5826     9.1612    -0.0143 H       
  52 H52            8.9581     9.7787    -0.0332 H       
  53 H53           10.6892     8.0271    -0.0581 H       
@<TRIPOS>BOND
   1    1    2 ar
   2    1    6 ar
   3    1   37 1
   4    2    3 ar
   5    2   38 1
   6    3    4 ar
   7    3   39 1
   8    4    5 ar
   9    4    7 1
  10    5    6 ar
  11    5   10 1
  12    6   40 1
  13    7    8 1
  14    7   15 1
  15    8    9 2
  16    8   41 1
  17    9   10 1
  18    9   11 1
  19   10   13 2
  20   11   12 am
  21   11   14 2
  22   12   13 1
  23   12   27 1
  24   15   16 1
  25   15   42 1
  26   15   43 1
  27   16   17 ar
  28   16   21 ar
  29   17   18 ar
  30   17   44 1
  31   18   19 ar
  32   18   45 1
  33   19   20 ar
  34   19   22 1
  35   20   21 ar
  36   20   46 1
  37   21   47 1
  38   22   23 1
  39   22   26 1
  40   23   24 2
  41   23   48 1
  42   24   25 1
  43   24   49 1
  44   25   26 2
  45   25   50 1
  46   27   29 1
  47   27   28 2
  48   28   31 1
  49   29   30 1
  50   30   31 ar
  51   30   32 ar
  52   31   35 ar
  53   32   33 ar
  54   32   51 1
  55   33   34 ar
  56   33   52 1
  57   34   35 ar
  58   34   53 1
  59   35   36 1

#	End of record

