#	Name: ASD01230125
#	Creating user name:	WinNT
#	Creation time:	15. 06. 2019 19:11

#	Modifying user name:	WinNT
#	Modification time:	15. 06. 2019 19:11

#	Program:	/corina/corina34_cracker 3.40 0067  02.08.2006

@<TRIPOS>MOLECULE
ASD01230125
  79   82    0    0    0
SMALL
NO_CHARGES


@<TRIPOS>ATOM
   1 P1            -0.0180     1.4758     0.0102 P.3     
   2 O2             0.0021    -0.0041     0.0020 O.2     
   3 O3             1.4924     2.0330    -0.0013 O.3     
   4 O4            -0.7967     2.0091    -1.2942 O.3     
   5 N5            -0.8057     2.0185     1.3948 N.3     
   6 N6            -2.6500     4.9581     1.7018 N.am    
   7 C7            -2.1633     3.9966     0.8984 C.2     
   8 C8            -0.8449     3.4864     1.4370 C.3     
   9 C9            -0.8138     3.9868     2.8998 C.3     
  10 C10           -1.7505     5.2134     2.8331 C.3     
  11 O11           -2.7029     3.5960    -0.1112 O.2     
  12 C12           -3.9129     5.6648     1.4741 C.3     
  13 C13            2.3232     1.3961     0.8653 C.ar    
  14 C14            3.0337     0.2784     0.4523 C.ar    
  15 C15            3.8775    -0.3674     1.3351 C.ar    
  16 C16            4.0143     0.0993     2.6294 C.ar    
  17 C17            3.3069     1.2128     3.0436 C.ar    
  18 C18            2.4665     1.8658     2.1628 C.ar    
  19 C19           -2.0843     1.5269    -1.6833 C.3     
  20 O20           -1.6795     1.8726    -4.0670 O.3     
  21 C21           -2.5317     2.2407    -2.9605 C.3     
  22 C22           -3.9427     1.7678    -3.3748 C.3     
  23 C23           -3.8852     1.7216    -4.9181 C.3     
  24 C24           -2.4461     2.1721    -5.2537 C.3     
  25 F25           -4.1113     0.4200    -5.3784 F       
  26 F26           -4.8173     2.6069    -5.4701 F       
  27 C27           -1.5920     2.0677    -7.5271 C.2     
  28 N28           -1.1145     1.3996    -8.5937 N.am    
  29 C29           -0.9669     0.0602    -8.5463 C.2     
  30 C30           -1.3183    -0.6360    -7.3647 C.2     
  31 C31           -1.7945     0.0591    -6.3096 C.2     
  32 N32           -1.9295     1.4178    -6.3985 N.am    
  33 O33           -0.5358    -0.5451    -9.5110 O.2     
  34 O34           -1.7153     3.2760    -7.5828 O.2     
  35 O35           -4.9321     2.7020    -2.9384 O.3     
  36 Si36          -6.3807     2.0288    -2.6091 Si      
  37 C37           -7.0437     1.2015    -4.1410 C.3     
  38 C38           -6.1843     0.7636    -1.2557 C.3     
  39 C39           -7.5688     3.3522    -2.0543 C.3     
  40 C40           -7.7301     4.3912    -3.1658 C.3     
  41 C41           -8.9278     2.7206    -1.7455 C.3     
  42 C42           -7.0244     4.0315    -0.7962 C.3     
  43 H43           -1.7348     1.6300     1.4581 H       
  44 H44           -0.0135     3.9057     0.8705 H       
  45 H45           -1.2084     3.2311     3.5790 H       
  46 H46            0.1947     4.2815     3.1899 H       
  47 H47           -1.1722     6.1205     2.6579 H       
  48 H48           -2.3222     5.3021     3.7569 H       
  49 H49           -4.3811     5.2881     0.5647 H       
  50 H50           -4.5792     5.5001     2.3209 H       
  51 H51           -3.7180     6.7319     1.3673 H       
  52 H52            2.9269    -0.0868    -0.5585 H       
  53 H53            4.4305    -1.2378     1.0141 H       
  54 H54            4.6745    -0.4069     3.3181 H       
  55 H55            3.4149     1.5750     4.0553 H       
  56 H56            1.9180     2.7383     2.4854 H       
  57 H57           -2.0302     0.4538    -1.8667 H       
  58 H58           -2.8019     1.7236    -0.8868 H       
  59 H59           -2.5207     3.3210    -2.8162 H       
  60 H60           -4.1474     0.7765    -2.9704 H       
  61 H61           -2.4220     3.2419    -5.4611 H       
  62 H62           -0.8759     1.8837    -9.3997 H       
  63 H63           -1.2074    -1.7088    -7.3082 H       
  64 H64           -2.0677    -0.4550    -5.3999 H       
  65 H65           -6.3485     0.4272    -4.4656 H       
  66 H66           -8.0118     0.7516    -3.9210 H       
  67 H67           -7.1586     1.9417    -4.9329 H       
  68 H68           -5.7964     1.2476    -0.3594 H       
  69 H69           -7.1524     0.3137    -1.0357 H       
  70 H70           -5.4892    -0.0107    -1.5803 H       
  71 H71           -8.1180     3.9072    -4.0621 H       
  72 H72           -8.4253     5.1655    -2.8412 H       
  73 H73           -6.7620     4.8411    -3.3859 H       
  74 H74           -8.8128     1.9804    -0.9536 H       
  75 H75           -9.6229     3.4949    -1.4209 H       
  76 H76           -9.3156     2.2366    -2.6418 H       
  77 H77           -6.0563     4.4815    -1.0163 H       
  78 H78           -7.7195     4.8058    -0.4717 H       
  79 H79           -6.9095     3.2913    -0.0044 H       
@<TRIPOS>BOND
   1    1    2 2
   2    1    3 1
   3    1    4 1
   4    1    5 1
   5    3   13 1
   6    4   19 1
   7    5    8 1
   8    5   43 1
   9    6    7 am
  10    6   10 1
  11    6   12 1
  12    7    8 1
  13    7   11 2
  14    8    9 1
  15    8   44 1
  16    9   10 1
  17    9   45 1
  18    9   46 1
  19   10   47 1
  20   10   48 1
  21   12   49 1
  22   12   50 1
  23   12   51 1
  24   13   14 ar
  25   13   18 ar
  26   14   15 ar
  27   14   52 1
  28   15   16 ar
  29   15   53 1
  30   16   17 ar
  31   16   54 1
  32   17   18 ar
  33   17   55 1
  34   18   56 1
  35   19   21 1
  36   19   57 1
  37   19   58 1
  38   20   21 1
  39   20   24 1
  40   21   22 1
  41   21   59 1
  42   22   23 1
  43   22   35 1
  44   22   60 1
  45   23   24 1
  46   23   25 1
  47   23   26 1
  48   24   32 1
  49   24   61 1
  50   27   28 am
  51   27   32 am
  52   27   34 2
  53   28   29 am
  54   28   62 1
  55   29   30 1
  56   29   33 2
  57   30   31 2
  58   30   63 1
  59   31   32 1
  60   31   64 1
  61   35   36 1
  62   36   37 1
  63   36   38 1
  64   36   39 1
  65   37   65 1
  66   37   66 1
  67   37   67 1
  68   38   68 1
  69   38   69 1
  70   38   70 1
  71   39   40 1
  72   39   42 1
  73   39   41 1
  74   40   71 1
  75   40   72 1
  76   40   73 1
  77   41   74 1
  78   41   75 1
  79   41   76 1
  80   42   77 1
  81   42   78 1
  82   42   79 1

#	End of record

