#	Name: ASD02038529
#	Creating user name:	WinNT
#	Creation time:	15. 06. 2019 20:16

#	Modifying user name:	WinNT
#	Modification time:	15. 06. 2019 20:16

#	Program:	/corina/corina34_cracker 3.40 0067  02.08.2006

@<TRIPOS>MOLECULE
ASD02038529
  59   61    0    0    0
SMALL
NO_CHARGES


@<TRIPOS>ATOM
   1 Cl1            7.2341     4.4079    -0.1875 Cl      
   2 C2             0.3976     0.2646     0.8883 C.3     
   3 N3            -0.0960    -0.0172    -0.4669 N.3     
   4 C4            -1.4390    -0.6109    -0.4252 C.3     
   5 C5            -0.0830     1.1986    -1.2924 C.3     
   6 C6             1.3459     1.7406    -1.3752 C.3     
   7 N7             1.8395     2.0223    -0.0199 N.3     
   8 C8             3.1171     2.5871    -0.0596 C.ar    
   9 C9             3.7638     2.9287     1.1212 C.ar    
  10 C10            5.0264     3.4867     1.0790 C.ar    
  11 C11            5.6472     3.7057    -0.1382 C.ar    
  12 C12            5.0052     3.3663    -1.3162 C.ar    
  13 C13            3.7449     2.8027    -1.2797 C.ar    
  14 C14            1.8265     0.8066     0.8055 C.3     
  15 C15           -1.3356    -2.0768     0.0004 C.3     
  16 C16           -2.7403    -2.6614     0.1617 C.3     
  17 O17           -2.6464    -3.9934     0.6707 O.3     
  18 C18           -3.8138    -4.6605     0.8735 C.ar    
  19 C19           -3.7947    -5.9572     1.3658 C.ar    
  20 C20           -5.0234    -4.0420     0.5932 C.ar    
  21 C21           -6.2093    -4.7189     0.7990 C.ar    
  22 C22           -6.1908    -6.0189     1.2864 C.ar    
  23 C23           -4.9799    -6.6353     1.5720 C.ar    
  24 O24           -0.6248    -2.8133    -0.9968 O.3     
  25 N25           -7.3936    -6.7060     1.4957 N.am    
  26 C26           -8.3938    -6.6028     0.5982 C.2     
  27 N27           -9.5899    -7.1686     0.8541 N.am    
  28 S28           -8.1447    -5.7529    -0.8669 S.2     
  29 C29          -10.6771    -7.0563    -0.1214 C.3     
  30 C30          -11.9158    -7.7803     0.4098 C.3     
  31 H31           -0.2456     1.0058     1.3628 H       
  32 H32            0.3903    -0.6533     1.4761 H       
  33 H33           -2.0546    -0.0671     0.2914 H       
  34 H34           -1.8937    -0.5508    -1.4140 H       
  35 H35           -0.4407     0.9617    -2.2944 H       
  36 H36           -0.7316     1.9504    -0.8427 H       
  37 H37            1.9890     0.9994    -1.8496 H       
  38 H38            1.3532     2.6585    -1.9630 H       
  39 H39            3.2796     2.7584     2.0714 H       
  40 H40            5.5295     3.7529     1.9968 H       
  41 H41            5.4919     3.5386    -2.2648 H       
  42 H42            3.2445     2.5377    -2.1993 H       
  43 H43            2.1842     1.0435     1.8075 H       
  44 H44            2.4751     0.0548     0.3558 H       
  45 H45           -0.8033    -2.1430     0.9493 H       
  46 H46           -3.3122    -2.0464     0.8566 H       
  47 H47           -3.2408    -2.6768    -0.8065 H       
  48 H48           -2.8528    -6.4367     1.5876 H       
  49 H49           -5.0377    -3.0307     0.2144 H       
  50 H50           -7.1510    -4.2371     0.5811 H       
  51 H51           -4.9647    -7.6465     1.9512 H       
  52 H52           -1.0421    -2.7982    -1.8690 H       
  53 H53           -7.5066    -7.2562     2.2866 H       
  54 H54           -9.7310    -7.6501     1.6843 H       
  55 H55          -10.9126    -6.0045    -0.2836 H       
  56 H56          -10.3679    -7.5088    -1.0636 H       
  57 H57          -12.2250    -7.3277     1.3520 H       
  58 H58          -12.7247    -7.6967    -0.3160 H       
  59 H59          -11.6803    -8.8321     0.5719 H       
@<TRIPOS>BOND
   1    1   11 1
   2    2    3 1
   3    2   14 1
   4    2   31 1
   5    2   32 1
   6    3    4 1
   7    3    5 1
   8    4   15 1
   9    4   33 1
  10    4   34 1
  11    5    6 1
  12    5   35 1
  13    5   36 1
  14    6    7 1
  15    6   37 1
  16    6   38 1
  17    7    8 1
  18    7   14 1
  19    8    9 ar
  20    8   13 ar
  21    9   10 ar
  22    9   39 1
  23   10   11 ar
  24   10   40 1
  25   11   12 ar
  26   12   13 ar
  27   12   41 1
  28   13   42 1
  29   14   43 1
  30   14   44 1
  31   15   16 1
  32   15   24 1
  33   15   45 1
  34   16   17 1
  35   16   46 1
  36   16   47 1
  37   17   18 1
  38   18   19 ar
  39   18   20 ar
  40   19   23 ar
  41   19   48 1
  42   20   21 ar
  43   20   49 1
  44   21   22 ar
  45   21   50 1
  46   22   23 ar
  47   22   25 1
  48   23   51 1
  49   24   52 1
  50   25   26 am
  51   25   53 1
  52   26   27 am
  53   26   28 2
  54   27   29 1
  55   27   54 1
  56   29   30 1
  57   29   55 1
  58   29   56 1
  59   30   57 1
  60   30   58 1
  61   30   59 1

#	End of record

