#	Name: ASD03730018
#	Creating user name:	WinNT
#	Creation time:	15. 06. 2019 20:43

#	Modifying user name:	WinNT
#	Modification time:	15. 06. 2019 20:43

#	Program:	/corina/corina34_cracker 3.40 0067  02.08.2006

@<TRIPOS>MOLECULE
ASD03730018
  47   49    0    0    0
SMALL
NO_CHARGES


@<TRIPOS>ATOM
   1 N1             0.0010     1.3403     0.2043 N.am    
   2 C2             0.0069     0.0026     0.0780 C.2     
   3 C3             1.4548    -0.4298    -0.0141 C.3     
   4 C4             2.2312     0.8634     0.0801 C.ar    
   5 C5             3.5774     1.1511     0.0588 C.ar    
   6 C6             4.0046     2.4630     0.1665 C.ar    
   7 C7             3.0766     3.4803     0.2953 C.ar    
   8 C8             1.7272     3.1948     0.3170 C.ar    
   9 C9             1.2893     1.8762     0.2090 C.ar    
  10 O10           -0.9650    -0.7222     0.0446 O.2     
  11 C11           -1.2183     2.1445     0.3176 C.3     
  12 C12           -1.5982     2.2897     1.7925 C.3     
  13 C13           -2.8716     3.1295     1.9109 C.3     
  14 C14           -3.2516     3.2747     3.3858 C.3     
  15 C15           -4.5250     4.1146     3.5042 C.3     
  16 C16            1.8128    -1.3561     1.1499 C.3     
  17 O17            0.9208    -2.4724     1.1620 O.3     
  18 C18            1.7199    -1.1099    -1.3326 C.ar    
  19 C19            1.4134    -0.4629    -2.5209 C.ar    
  20 C20            1.6583    -1.0895    -3.7335 C.ar    
  21 C21            2.2074    -2.3583    -3.7566 C.ar    
  22 C22            2.5128    -3.0028    -2.5688 C.ar    
  23 C23            2.2734    -2.3754    -1.3581 C.ar    
  24 O24            0.8731     0.7843    -2.4966 O.3     
  25 F25            3.0490    -4.2427    -2.5921 F       
  26 Cl26           2.5138    -3.1439    -5.2740 Cl      
  27 H27            4.2991     0.3539    -0.0416 H       
  28 H28            5.0600     2.6918     0.1504 H       
  29 H29            3.4102     4.5040     0.3797 H       
  30 H30            1.0087     3.9948     0.4178 H       
  31 H31           -1.0440     3.1312    -0.1116 H       
  32 H32           -2.0292     1.6527    -0.2198 H       
  33 H33           -1.7726     1.3030     2.2216 H       
  34 H34           -0.7874     2.7815     2.3299 H       
  35 H35           -2.6973     4.1162     1.4817 H       
  36 H36           -3.6825     2.6377     1.3735 H       
  37 H37           -3.4259     2.2880     3.8149 H       
  38 H38           -2.4407     3.7666     3.9232 H       
  39 H39           -4.3507     5.1013     3.0750 H       
  40 H40           -5.3358     3.6228     2.9668 H       
  41 H41           -4.7956     4.2180     4.5550 H       
  42 H42            2.8367    -1.7104     1.0306 H       
  43 H43            1.7244    -0.8101     2.0891 H       
  44 H44            1.0894    -3.1029     1.8756 H       
  45 H45            1.4198    -0.5870    -4.6592 H       
  46 H46            2.5160    -2.8771    -0.4330 H       
  47 H47            1.5271     1.4966    -2.5072 H       
@<TRIPOS>BOND
   1    1    2 am
   2    1    9 1
   3    1   11 1
   4    2    3 1
   5    2   10 2
   6    3    4 1
   7    3   16 1
   8    3   18 1
   9    4    5 ar
  10    4    9 ar
  11    5    6 ar
  12    5   27 1
  13    6    7 ar
  14    6   28 1
  15    7    8 ar
  16    7   29 1
  17    8    9 ar
  18    8   30 1
  19   11   12 1
  20   11   31 1
  21   11   32 1
  22   12   13 1
  23   12   33 1
  24   12   34 1
  25   13   14 1
  26   13   35 1
  27   13   36 1
  28   14   15 1
  29   14   37 1
  30   14   38 1
  31   15   39 1
  32   15   40 1
  33   15   41 1
  34   16   17 1
  35   16   42 1
  36   16   43 1
  37   17   44 1
  38   18   19 ar
  39   18   23 ar
  40   19   20 ar
  41   19   24 1
  42   20   21 ar
  43   20   45 1
  44   21   22 ar
  45   21   26 1
  46   22   23 ar
  47   22   25 1
  48   23   46 1
  49   24   47 1

#	End of record

