#	Name: ASD07930381
#	Creating user name:	WinNT
#	Creation time:	15. 06. 2019 21:12

#	Modifying user name:	WinNT
#	Modification time:	15. 06. 2019 21:12

#	Program:	/corina/corina34_cracker 3.40 0067  02.08.2006

@<TRIPOS>MOLECULE
ASD07930381
  49   50    0    0    0
SMALL
NO_CHARGES


@<TRIPOS>ATOM
   1 N1             0.0732     1.4481     0.1952 N.pl3   
   2 C2             0.0021    -0.0041     0.0020 C.3     
   3 C3             0.5396    -0.7067     1.2569 C.3     
   4 N4             2.0306     1.5614     1.4937 N.am    
   5 C5             1.2775     2.0461     0.4487 C.2     
   6 C6            -1.4302    -0.4118    -0.2288 C.ar    
   7 C7            -1.7166    -1.5291    -0.9948 C.ar    
   8 C8             2.6327     2.4551     2.4862 C.3     
   9 C9             0.8493    -0.4009    -1.2086 C.3     
  10 C10           -3.7790    -0.0496     0.1158 C.ar    
  11 C11           -4.0642    -1.1661    -0.6572 C.ar    
  12 C12           -3.0332    -1.9063    -1.2086 C.ar    
  13 C13           -2.4573     0.3270     0.3290 C.ar    
  14 N14           -4.8203     0.7006     0.6745 N.pl3   
  15 F15           -0.7114    -2.2525    -1.5348 F       
  16 F16           -2.1770     1.4137     1.0812 F       
  17 F17           -3.3100    -2.9969    -1.9563 F       
  18 N18            1.7052     3.0592    -0.2887 N.2     
  19 O19            1.3918     4.5466    -2.0517 O.3     
  20 C20            0.5408     4.9801    -3.1146 C.3     
  21 C21           -0.8044     5.4289    -2.5403 C.3     
  22 C22            1.1978     6.1507    -3.8489 C.3     
  23 C23            0.3179     3.8250    -4.0929 C.3     
  24 C24            0.9559     3.5140    -1.3001 C.2     
  25 O25           -0.1189     2.9962    -1.5422 O.2     
  26 S26            2.2236    -0.0917     1.5751 S.o2    
  27 O27            2.6059    -0.3413     2.9208 O.2     
  28 O28            3.0881    -0.4046     0.4917 O.2     
  29 H29           -0.7327     1.9850     0.1392 H       
  30 H30           -0.1018    -0.4801     2.1086 H       
  31 H31            0.5664    -1.7839     1.0923 H       
  32 H32            2.3817     3.4880     2.2447 H       
  33 H33            2.2486     2.2099     3.4764 H       
  34 H34            3.7157     2.3325     2.4759 H       
  35 H35            1.8189     0.0939    -1.1514 H       
  36 H36            0.9925    -1.4814    -1.2134 H       
  37 H37            0.3402    -0.0978    -2.1235 H       
  38 H38           -5.0900    -1.4575    -0.8279 H       
  39 H39           -5.7421     0.4400     0.5215 H       
  40 H40           -4.6202     1.4810     1.2147 H       
  41 H41           -0.6456     6.2518    -1.8434 H       
  42 H42           -1.4535     5.7595    -3.3511 H       
  43 H43           -1.2725     4.5949    -2.0172 H       
  44 H44            2.1562     5.8310    -4.2581 H       
  45 H45            0.5487     6.4813    -4.6597 H       
  46 H46            1.3566     6.9736    -3.1520 H       
  47 H47           -0.1502     2.9911    -3.5698 H       
  48 H48           -0.3312     4.1557    -4.9037 H       
  49 H49            1.2763     3.5054    -4.5021 H       
@<TRIPOS>BOND
   1    1    2 1
   2    1    5 1
   3    1   29 1
   4    2    3 1
   5    2    6 1
   6    2    9 1
   7    3   26 1
   8    3   30 1
   9    3   31 1
  10    4    5 1
  11    4    8 1
  12    4   26 am
  13    5   18 2
  14    6   13 ar
  15    6    7 ar
  16    7   15 1
  17    7   12 ar
  18    8   32 1
  19    8   33 1
  20    8   34 1
  21    9   35 1
  22    9   36 1
  23    9   37 1
  24   10   11 ar
  25   10   14 1
  26   10   13 ar
  27   11   12 ar
  28   11   38 1
  29   12   17 1
  30   13   16 1
  31   14   39 1
  32   14   40 1
  33   18   24 1
  34   19   20 1
  35   19   24 1
  36   20   21 1
  37   20   22 1
  38   20   23 1
  39   21   41 1
  40   21   42 1
  41   21   43 1
  42   22   44 1
  43   22   45 1
  44   22   46 1
  45   23   47 1
  46   23   48 1
  47   23   49 1
  48   24   25 2
  49   26   27 2
  50   26   28 2

#	End of record

