#	Name: ASD05430630
#	Creating user name:	WinNT
#	Creation time:	15. 06. 2019 21:00

#	Modifying user name:	WinNT
#	Modification time:	15. 06. 2019 21:00

#	Program:	/corina/corina34_cracker 3.40 0067  02.08.2006

@<TRIPOS>MOLECULE
ASD05430630
  33   34    0    0    0
SMALL
NO_CHARGES


@<TRIPOS>ATOM
   1 C1            -0.0168     1.3841     0.0097 C.ar    
   2 C2             0.0021    -0.0041     0.0020 C.ar    
   3 C3             1.2152    -0.6790    -0.0132 C.ar    
   4 C4             2.3994     0.0319    -0.0207 C.ar    
   5 C5             2.3774     1.4145    -0.0130 C.ar    
   6 C6             1.1707     2.0895     0.0021 C.ar    
   7 C7             3.6712     2.1872    -0.0212 C.3     
   8 C8             3.7274     3.0746    -1.2663 C.3     
   9 C9             3.7513     3.0612     1.2320 C.3     
  10 N10           -1.2016    -0.7229     0.0101 N.pl3   
  11 C11           -1.3424    -2.0628     0.0043 C.2     
  12 N12           -2.5007    -0.1897     0.0320 N.2     
  13 C13           -3.3257    -1.2041     0.0323 C.2     
  14 N14           -2.6220    -2.3356     0.0156 N.2     
  15 C15           -4.8296    -1.1090     0.0524 C.3     
  16 C16           -5.3569    -1.0623    -1.3831 C.3     
  17 H17           -0.9590     1.9119     0.0170 H       
  18 H18            1.2330    -1.7588    -0.0188 H       
  19 H19            3.3434    -0.4926    -0.0322 H       
  20 H20            1.1567     3.1694     0.0084 H       
  21 H21            4.5100     1.4912    -0.0330 H       
  22 H22            2.8886     3.7706    -1.2546 H       
  23 H23            4.6632     3.6335    -1.2723 H       
  24 H24            3.6704     2.4520    -2.1592 H       
  25 H25            3.7112     2.4290     2.1190 H       
  26 H26            4.6871     3.6201     1.2261 H       
  27 H27            2.9125     3.7572     1.2437 H       
  28 H28           -0.5396    -2.7851    -0.0078 H       
  29 H29           -5.2419    -1.9794     0.5628 H       
  30 H30           -5.1293    -0.2031     0.5793 H       
  31 H31           -4.9446    -0.1919    -1.8935 H       
  32 H32           -5.0571    -1.9682    -1.9099 H       
  33 H33           -6.4446    -0.9935    -1.3685 H       
@<TRIPOS>BOND
   1    1    2 ar
   2    1    6 ar
   3    1   17 1
   4    2    3 ar
   5    2   10 1
   6    3    4 ar
   7    3   18 1
   8    4    5 ar
   9    4   19 1
  10    5    6 ar
  11    5    7 1
  12    6   20 1
  13    7    8 1
  14    7    9 1
  15    7   21 1
  16    8   22 1
  17    8   23 1
  18    8   24 1
  19    9   25 1
  20    9   26 1
  21    9   27 1
  22   10   11 1
  23   10   12 1
  24   11   14 2
  25   11   28 1
  26   12   13 2
  27   13   14 1
  28   13   15 1
  29   15   16 1
  30   15   29 1
  31   15   30 1
  32   16   31 1
  33   16   32 1
  34   16   33 1

#	End of record

