#	Name: ASD08170413
#	Creating user name:	WinNT
#	Creation time:	15. 06. 2019 21:17

#	Modifying user name:	WinNT
#	Modification time:	15. 06. 2019 21:17

#	Program:	/corina/corina34_cracker 3.40 0067  02.08.2006

@<TRIPOS>MOLECULE
ASD08170413
  63   66    0    0    0
SMALL
NO_CHARGES


@<TRIPOS>ATOM
   1 N1             0.7620     1.1296    -0.9347 N.2     
   2 C2             0.8553    -0.1655    -0.8979 C.2     
   3 S3             2.5129    -0.5953    -0.8507 S.3     
   4 C4             2.9373     1.1164    -0.8877 C.2     
   5 N5             1.8349     1.7949    -0.9296 N.2     
   6 C6             8.4756     3.5560     4.0210 C.2     
   7 S7             8.1315     4.9899     4.9891 S.3     
   8 C8             8.7749     4.1932     6.3625 C.2     
   9 N9             9.1660     3.0059     6.0097 N.2     
  10 N10            9.0086     2.6716     4.8025 N.2     
  11 C11            9.9387     3.7265    10.9436 C.ar    
  12 C12           10.9424     2.7910    10.7292 C.ar    
  13 C13            9.3957     3.8794    12.2126 C.ar    
  14 C14            9.8551     3.1012    13.2570 C.ar    
  15 C15           10.8547     2.1706    13.0402 C.ar    
  16 C16           11.3974     2.0159    11.7778 C.ar    
  17 C17           -3.8206    -0.9769    -1.0850 C.ar    
  18 C18           -4.0692     0.1350    -1.8790 C.ar    
  19 C19           -5.3606     0.6021    -2.0256 C.ar    
  20 C20           -6.4054    -0.0359    -1.3826 C.ar    
  21 C21           -6.1611    -1.1431    -0.5910 C.ar    
  22 C22           -4.8727    -1.6188    -0.4452 C.ar    
  23 N23            8.8641     4.7291     7.6427 N.am    
  24 C24            9.3930     3.9981     8.6438 C.2     
  25 O25            9.7923     2.8702     8.4277 O.2     
  26 N26            9.4795     4.5174     9.8845 N.am    
  27 C27            4.3320     1.6869    -0.8727 C.3     
  28 C28            4.7726     1.9190     0.5741 C.3     
  29 S29            6.4515     2.6057     0.5921 S.3     
  30 C30            6.7906     2.8079     2.3627 C.3     
  31 C31            8.1938     3.3880     2.5502 C.3     
  32 N32           -0.2133    -1.0555    -0.8964 N.am    
  33 C33           -1.4777    -0.5904    -0.9361 C.2     
  34 O34           -1.6841     0.6072    -0.9732 O.2     
  35 N35           -2.5133    -1.4530    -0.9347 N.am    
  36 C36           11.3539     1.3235    14.1823 C.3     
  37 C37           -7.8133     0.4768    -1.5445 C.3     
  38 H38           11.3665     2.6695     9.7434 H       
  39 H39            8.6152     4.6063    12.3826 H       
  40 H40            9.4335     3.2199    14.2442 H       
  41 H41           12.1777     1.2880    11.6116 H       
  42 H42           -3.2535     0.6342    -2.3809 H       
  43 H43           -5.5547     1.4668    -2.6429 H       
  44 H44           -6.9792    -1.6388    -0.0895 H       
  45 H45           -4.6825    -2.4836     0.1732 H       
  46 H46            8.5456     5.6289     7.8151 H       
  47 H47            9.2234     5.4394    10.0433 H       
  48 H48            5.0160     0.9872    -1.3530 H       
  49 H49            4.3430     2.6340    -1.4121 H       
  50 H50            4.0886     2.6187     1.0544 H       
  51 H51            4.7616     0.9719     1.1136 H       
  52 H52            6.0561     3.4854     2.7982 H       
  53 H53            6.7291     1.8386     2.8574 H       
  54 H54            8.2553     4.3573     2.0554 H       
  55 H55            8.9283     2.7106     2.1146 H       
  56 H56           -0.0487    -2.0109    -0.8668 H       
  57 H57           -2.3525    -2.4037    -0.8296 H       
  58 H58           10.7650     0.4081    14.2402 H       
  59 H59           12.4015     1.0718    14.0171 H       
  60 H60           11.2563     1.8780    15.1156 H       
  61 H61           -8.2815    -0.0110    -2.3994 H       
  62 H62           -8.3855     0.2579    -0.6430 H       
  63 H63           -7.7910     1.5542    -1.7081 H       
@<TRIPOS>BOND
   1    1    2 2
   2    1    5 1
   3    2    3 1
   4    2   32 1
   5    3    4 1
   6    4    5 2
   7    4   27 1
   8    6    7 1
   9    6   31 1
  10    6   10 2
  11    7    8 1
  12    8    9 2
  13    8   23 1
  14    9   10 1
  15   11   12 ar
  16   11   13 ar
  17   11   26 1
  18   12   16 ar
  19   12   38 1
  20   13   14 ar
  21   13   39 1
  22   14   15 ar
  23   14   40 1
  24   15   16 ar
  25   15   36 1
  26   16   41 1
  27   17   18 ar
  28   17   35 1
  29   17   22 ar
  30   18   19 ar
  31   18   42 1
  32   19   20 ar
  33   19   43 1
  34   20   21 ar
  35   20   37 1
  36   21   22 ar
  37   21   44 1
  38   22   45 1
  39   23   24 am
  40   23   46 1
  41   24   25 2
  42   24   26 am
  43   26   47 1
  44   27   28 1
  45   27   48 1
  46   27   49 1
  47   28   29 1
  48   28   50 1
  49   28   51 1
  50   29   30 1
  51   30   31 1
  52   30   52 1
  53   30   53 1
  54   31   54 1
  55   31   55 1
  56   32   33 am
  57   32   56 1
  58   33   34 2
  59   33   35 am
  60   35   57 1
  61   36   58 1
  62   36   59 1
  63   36   60 1
  64   37   61 1
  65   37   62 1
  66   37   63 1

#	End of record

