#	Name: ASD01915035
#	Creating user name:	WinNT
#	Creation time:	15. 06. 2019 20:04

#	Modifying user name:	WinNT
#	Modification time:	15. 06. 2019 20:04

#	Program:	/corina/corina34_cracker 3.40 0067  02.08.2006

@<TRIPOS>MOLECULE
ASD01915035
  33   35    0    0    0
SMALL
NO_CHARGES


@<TRIPOS>ATOM
   1 C1            -0.0180     1.4738     0.0101 C.2     
   2 C2             0.0021    -0.0041     0.0020 C.ar    
   3 C3             1.2185    -0.6879    -0.0133 C.ar    
   4 C4             1.2293    -2.0723    -0.0203 C.ar    
   5 C5             0.0327    -2.7767    -0.0127 C.ar    
   6 C6            -1.1732    -2.1007     0.0020 C.ar    
   7 C7            -1.1956    -0.7210     0.0154 C.ar    
   8 O8             1.0262     2.0958     0.0035 O.2     
   9 N9            -1.1942     2.1317     0.0193 N.am    
  10 O10            2.4118    -2.7422    -0.0352 O.3     
  11 C11            2.3486    -4.1698    -0.0418 C.3     
  12 C12           -1.2130     3.5151     0.0269 C.2     
  13 N13           -0.1061     4.3142     0.0260 N.pl3   
  14 C14           -0.5471     5.6264     0.0352 C.ar    
  15 C15           -1.9509     5.5664     0.0416 C.ar    
  16 N16           -2.2945     4.2521     0.0304 N.2     
  17 C17           -2.6898     6.7519     0.0516 C.ar    
  18 C18           -2.0371     7.9644     0.0551 C.ar    
  19 C19           -0.6513     8.0180     0.0484 C.ar    
  20 C20            0.0931     6.8563     0.0393 C.ar    
  21 H21            2.1485    -0.1388    -0.0199 H       
  22 H22            0.0441    -3.8566    -0.0186 H       
  23 H23           -2.1005    -2.6542     0.0072 H       
  24 H24           -2.1393    -0.1961     0.0314 H       
  25 H25           -2.0276     1.6354     0.0206 H       
  26 H26            1.8278    -4.5145     0.8516 H       
  27 H27            1.8105    -4.5056    -0.9282 H       
  28 H28            3.3591    -4.5782    -0.0537 H       
  29 H29            0.8175     4.0178     0.0203 H       
  30 H30           -3.7692     6.7176     0.0562 H       
  31 H31           -2.6088     8.8807     0.0628 H       
  32 H32           -0.1515     8.9753     0.0505 H       
  33 H33            1.1720     6.9049     0.0347 H       
@<TRIPOS>BOND
   1    1    2 1
   2    1    8 2
   3    1    9 am
   4    2    3 ar
   5    2    7 ar
   6    3    4 ar
   7    3   21 1
   8    4    5 ar
   9    4   10 1
  10    5    6 ar
  11    5   22 1
  12    6    7 ar
  13    6   23 1
  14    7   24 1
  15    9   12 1
  16    9   25 1
  17   10   11 1
  18   11   26 1
  19   11   27 1
  20   11   28 1
  21   12   13 1
  22   12   16 2
  23   13   14 1
  24   13   29 1
  25   14   15 ar
  26   14   20 ar
  27   15   16 1
  28   15   17 ar
  29   17   18 ar
  30   17   30 1
  31   18   19 ar
  32   18   31 1
  33   19   20 ar
  34   19   32 1
  35   20   33 1

#	End of record

