#	Name: ASD01140059
#	Creating user name:	WinNT
#	Creation time:	15. 06. 2019 18:59

#	Modifying user name:	WinNT
#	Modification time:	15. 06. 2019 18:59

#	Program:	/corina/corina34_cracker 3.40 0067  02.08.2006

@<TRIPOS>MOLECULE
ASD01140059
  61   64    0    0    0
SMALL
NO_CHARGES


@<TRIPOS>ATOM
   1 C1             0.0455     3.2801    -1.1189 C.3     
   2 C2            -0.3417     1.8015    -1.1383 C.3     
   3 C3             0.0746     1.1303     0.1726 C.3     
   4 C4             1.5838     1.2841     0.3642 C.3     
   5 C5             1.9614     2.7624     0.4158 C.3     
   6 C6             1.5504     3.4335    -0.8938 C.3     
   7 C7             2.0362     0.5541     1.6262 C.3     
   8 C8             3.5547     0.6952     1.7941 C.3     
   9 C9             4.1027     1.5017     0.6174 C.3     
  10 C10            3.4764     2.8951     0.6298 C.3     
  11 C11            5.5935     1.5589     0.5780 C.3     
  12 C12            6.1616     2.9785     0.7894 C.3     
  13 C13            5.6371     3.9032    -0.2782 C.3     
  14 C14            4.1100     3.8108    -0.4010 C.3     
  15 C15            6.3998     0.7603     1.6122 C.3     
  16 C16            7.8419     1.2674     1.3042 C.3     
  17 C17            7.6774     2.6882     0.7075 C.3     
  18 C18           -1.8371     1.6820    -1.3028 C.2     
  19 C19            1.2620     3.4581     1.5876 C.3     
  20 C20            5.9091     3.5346     2.1887 C.3     
  21 C21            8.4308     3.6960     1.5314 C.2     
  22 C22            8.8753     4.9955     0.9110 C.3     
  23 O23            8.6796     3.4639     2.6900 O.2     
  24 H24            2.0747     0.8224    -0.5031 H       
  25 O25            0.3039     1.1513    -2.2353 O.3     
  26 C26           -2.3338     1.0491    -2.3366 C.2     
  27 H27           -0.2110     3.7229    -2.0886 H       
  28 H28           -0.5144     3.8016    -0.3476 H       
  29 H29           -0.4700     1.5633     1.0047 H       
  30 H30           -0.1666     0.0633     0.1136 H       
  31 H31            2.0857     2.9704    -1.7246 H       
  32 H32            1.7994     4.4954    -0.8529 H       
  33 H33            1.5290     0.9474     2.5027 H       
  34 H34            1.7916    -0.5093     1.5290 H       
  35 H35            3.7714     1.2124     2.7276 H       
  36 H36            4.0123    -0.2934     1.8052 H       
  37 H37            3.7725     0.9925    -0.3095 H       
  38 H38            3.5739     3.3352     1.6268 H       
  39 H39            5.9229     1.2072    -0.4275 H       
  40 H40            5.9211     4.9379    -0.0418 H       
  41 H41            6.0954     3.6476    -1.2434 H       
  42 H42            3.8626     3.4516    -1.4086 H       
  43 H43            3.6855     4.8186    -0.2992 H       
  44 H44            6.1090     0.9778     2.6291 H       
  45 H45            6.3292    -0.3094     1.4067 H       
  46 H46            8.4225     1.3109     2.2233 H       
  47 H47            8.3176     0.6084     0.5806 H       
  48 H48            7.9972     2.7108    -0.3289 H       
  49 H49           -2.4977     2.1183    -0.5682 H       
  50 H50            1.5618     2.9847     2.5225 H       
  51 H51            1.5447     4.5107     1.6063 H       
  52 H52            0.1819     3.3740     1.4678 H       
  53 H53            6.4951     2.9711     2.9148 H       
  54 H54            6.2022     4.5839     2.2211 H       
  55 H55            4.8497     3.4457     2.4293 H       
  56 H56            8.0038     5.5450     0.5551 H       
  57 H57            9.4019     5.5923     1.6557 H       
  58 H58            9.5416     4.7891     0.0734 H       
  59 H59            0.0731     1.5169    -3.1003 H       
  60 H60           -1.6732     0.6128    -3.0712 H       
  61 H61           -3.4040     0.9635    -2.4543 H       
@<TRIPOS>BOND
   1    1    2 1
   2    1    6 1
   3    1   27 1
   4    1   28 1
   5    2    3 1
   6    2   18 1
   7    2   25 1
   8    3    4 1
   9    3   29 1
  10    3   30 1
  11    4    5 1
  12    4    7 1
  13    4   24 1
  14    5    6 1
  15    5   19 1
  16    5   10 1
  17    6   31 1
  18    6   32 1
  19    7    8 1
  20    7   33 1
  21    7   34 1
  22    8    9 1
  23    8   35 1
  24    8   36 1
  25    9   10 1
  26    9   11 1
  27    9   37 1
  28   10   14 1
  29   10   38 1
  30   11   12 1
  31   11   15 1
  32   11   39 1
  33   12   13 1
  34   12   20 1
  35   12   17 1
  36   13   14 1
  37   13   40 1
  38   13   41 1
  39   14   42 1
  40   14   43 1
  41   15   16 1
  42   15   44 1
  43   15   45 1
  44   16   17 1
  45   16   46 1
  46   16   47 1
  47   17   21 1
  48   17   48 1
  49   18   26 2
  50   18   49 1
  51   19   50 1
  52   19   51 1
  53   19   52 1
  54   20   53 1
  55   20   54 1
  56   20   55 1
  57   21   22 1
  58   21   23 2
  59   22   56 1
  60   22   57 1
  61   22   58 1
  62   25   59 1
  63   26   60 1
  64   26   61 1

#	End of record

