#	Name: ASD05143337
#	Creating user name:	WinNT
#	Creation time:	15. 06. 2019 20:57

#	Modifying user name:	WinNT
#	Modification time:	15. 06. 2019 20:57

#	Program:	/corina/corina34_cracker 3.40 0067  02.08.2006

@<TRIPOS>MOLECULE
ASD05143337
  45   48    0    0    0
SMALL
NO_CHARGES


@<TRIPOS>ATOM
   1 C1             0.0230     1.2814     0.0024 C.2     
   2 N2            -0.0769    -0.0124     0.3912 N.pl3   
   3 S3            -1.7269    -0.4045     0.2641 S.3     
   4 C4            -2.2017     1.2054    -0.3102 C.2     
   5 N5            -1.0578     1.9022    -0.3490 N.2     
   6 N6            -3.4206     1.6277    -0.6263 N.2     
   7 C7            -3.6089     2.9096    -1.0549 C.ar    
   8 C8            -4.4215     3.1678    -2.1633 C.ar    
   9 C9            -4.6072     4.4658    -2.5900 C.ar    
  10 C10            0.9592    -0.8499     0.8092 C.ar    
  11 C11            0.7003    -1.8900     1.6937 C.ar    
  12 C12            2.2508    -0.6488     0.3373 C.ar    
  13 C13            3.2729    -1.4793     0.7526 C.ar    
  14 C14            3.0124    -2.5104     1.6366 C.ar    
  15 C15            1.7273    -2.7165     2.1046 C.ar    
  16 C16            1.3317     1.9689    -0.0145 C.ar    
  17 C17            1.7134     2.7221    -1.1259 C.ar    
  18 C18            2.1883     1.8724     1.0832 C.ar    
  19 C19            3.4079     2.5168     1.0612 C.ar    
  20 C20            3.7824     3.2579    -0.0456 C.ar    
  21 C21            2.9358     3.3616    -1.1350 C.ar    
  22 C22           -3.9913     5.5116    -1.9247 C.ar    
  23 C23           -3.1851     5.2640    -0.8272 C.ar    
  24 C24           -2.9947     3.9721    -0.3846 C.ar    
  25 C25            4.1304    -3.4152     2.0867 C.3     
  26 C26           -4.1992     6.9271    -2.3980 C.3     
  27 H27           -4.9022     2.3527    -2.6838 H       
  28 H28           -5.2346     4.6669    -3.4458 H       
  29 H29           -0.3029    -2.0515     2.0596 H       
  30 H30            2.4548     0.1558    -0.3536 H       
  31 H31            4.2768    -1.3236     0.3862 H       
  32 H32            1.5276    -3.5225     2.7952 H       
  33 H33            1.0535     2.8038    -1.9769 H       
  34 H34            1.8969     1.2948     1.9480 H       
  35 H35            4.0718     2.4430     1.9099 H       
  36 H36            4.7381     3.7608    -0.0576 H       
  37 H37            3.2342     3.9413    -1.9960 H       
  38 H38           -2.7076     6.0853    -0.3135 H       
  39 H39           -2.3657     3.7805     0.4722 H       
  40 H40            4.5910    -3.0044     2.9851 H       
  41 H41            3.7310    -4.4059     2.3036 H       
  42 H42            4.8777    -3.4898     1.2968 H       
  43 H43           -5.0653     7.3554    -1.8935 H       
  44 H44           -3.3144     7.5208    -2.1680 H       
  45 H45           -4.3682     6.9291    -3.4748 H       
@<TRIPOS>BOND
   1    1    2 1
   2    1   16 1
   3    1    5 2
   4    2    3 1
   5    2   10 1
   6    3    4 1
   7    4    5 1
   8    4    6 2
   9    6    7 1
  10    7    8 ar
  11    7   24 ar
  12    8    9 ar
  13    8   27 1
  14    9   22 ar
  15    9   28 1
  16   10   11 ar
  17   10   12 ar
  18   11   15 ar
  19   11   29 1
  20   12   13 ar
  21   12   30 1
  22   13   14 ar
  23   13   31 1
  24   14   15 ar
  25   14   25 1
  26   15   32 1
  27   16   17 ar
  28   16   18 ar
  29   17   21 ar
  30   17   33 1
  31   18   19 ar
  32   18   34 1
  33   19   20 ar
  34   19   35 1
  35   20   21 ar
  36   20   36 1
  37   21   37 1
  38   22   23 ar
  39   22   26 1
  40   23   24 ar
  41   23   38 1
  42   24   39 1
  43   25   40 1
  44   25   41 1
  45   25   42 1
  46   26   43 1
  47   26   44 1
  48   26   45 1

#	End of record

