#	Name: ASD01940627
#	Creating user name:	WinNT
#	Creation time:	15. 06. 2019 20:12

#	Modifying user name:	WinNT
#	Modification time:	15. 06. 2019 20:12

#	Program:	/corina/corina34_cracker 3.40 0067  02.08.2006

@<TRIPOS>MOLECULE
ASD01940627
  42   44    0    0    0
SMALL
NO_CHARGES


@<TRIPOS>ATOM
   1 C1             0.6003     0.9837    -0.3094 C.2     
   2 C2             0.4671    -0.4852    -0.2262 C.ar    
   3 C3             1.6063    -1.2913    -0.1822 C.ar    
   4 C4             1.4747    -2.6622    -0.1041 C.ar    
   5 C5             0.2174    -3.2389    -0.0698 C.ar    
   6 C6            -0.9157    -2.4460    -0.1135 C.ar    
   7 C7            -0.7986    -1.0734    -0.1854 C.ar    
   8 O8             1.7027     1.4928    -0.3396 O.2     
   9 O9            -0.5009     1.7582    -0.3572 O.3     
  10 S10            0.0586    -4.9909     0.0294 S.o2    
  11 O11           -1.2230    -5.3080    -0.4963 O.2     
  12 O12            1.2663    -5.5332    -0.4870 O.2     
  13 N13            0.0166    -5.3891     1.6362 N.am    
  14 C14           -0.9998    -4.8826     2.4572 C.ar    
  15 C15           -0.7240    -4.5427     3.7811 C.ar    
  16 C16           -1.7346    -4.0409     4.5898 C.ar    
  17 C17           -3.0132    -3.8794     4.0794 C.ar    
  18 C18           -3.2845    -4.2179     2.7652 C.ar    
  19 C19           -2.2801    -4.7130     1.9531 C.ar    
  20 N20            0.5699    -4.7077     4.2941 N.pl3   
  21 C21            0.7735    -4.7513     5.6769 C.ar    
  22 C22            0.4105    -5.8835     6.3999 C.ar    
  23 C23            0.6139    -5.9227     7.7665 C.ar    
  24 C24            1.1773    -4.8375     8.4146 C.ar    
  25 C25            1.5383    -3.7111     7.6981 C.ar    
  26 C26            1.3435    -3.6675     6.3307 C.ar    
  27 I27            1.4832    -4.9008    10.4862 I       
  28 F28           -0.1402    -6.9425     5.7671 F       
  29 F29           -3.9966    -3.3910     4.8666 F       
  30 F30           -1.4722    -3.7106     5.8733 F       
  31 H31            2.5883    -0.8425    -0.2097 H       
  32 H32            2.3551    -3.2869    -0.0701 H       
  33 H33           -1.8941    -2.9026    -0.0871 H       
  34 H34           -1.6838    -0.4554    -0.2146 H       
  35 H35           -0.3634     2.7139    -0.4111 H       
  36 H36            0.6955    -5.9730     2.0091 H       
  37 H37           -4.2821    -4.0913     2.3714 H       
  38 H38           -2.4944    -4.9715     0.9266 H       
  39 H39            1.3241    -4.7916     3.6899 H       
  40 H40            0.3327    -6.8007     8.3290 H       
  41 H41            1.9770    -2.8658     8.2074 H       
  42 H42            1.6301    -2.7889     5.7718 H       
@<TRIPOS>BOND
   1    1    2 1
   2    1    8 2
   3    1    9 1
   4    2    3 ar
   5    2    7 ar
   6    3    4 ar
   7    3   31 1
   8    4    5 ar
   9    4   32 1
  10    5    6 ar
  11    5   10 1
  12    6    7 ar
  13    6   33 1
  14    7   34 1
  15    9   35 1
  16   10   11 2
  17   10   12 2
  18   10   13 am
  19   13   14 1
  20   13   36 1
  21   14   15 ar
  22   14   19 ar
  23   15   16 ar
  24   15   20 1
  25   16   17 ar
  26   16   30 1
  27   17   18 ar
  28   17   29 1
  29   18   19 ar
  30   18   37 1
  31   19   38 1
  32   20   21 1
  33   20   39 1
  34   21   22 ar
  35   21   26 ar
  36   22   23 ar
  37   22   28 1
  38   23   24 ar
  39   23   40 1
  40   24   25 ar
  41   24   27 1
  42   25   26 ar
  43   25   41 1
  44   26   42 1

#	End of record

