#	Name: ASD01914260
#	Creating user name:	WinNT
#	Creation time:	15. 06. 2019 20:03

#	Modifying user name:	WinNT
#	Modification time:	15. 06. 2019 20:03

#	Program:	/corina/corina34_cracker 3.40 0067  02.08.2006

@<TRIPOS>MOLECULE
ASD01914260
  36   38    0    0    0
SMALL
NO_CHARGES


@<TRIPOS>ATOM
   1 N1            -0.0154     1.2833     0.0091 N.2     
   2 N2             0.0021    -0.0041     0.0020 N.pl3   
   3 N3             1.1958    -0.4863    -0.0120 N.2     
   4 C4             2.0615     0.5146    -0.0149 C.ar    
   5 C5             1.2309     1.7280    -0.0004 C.ar    
   6 C6             1.8656     2.9826     0.0003 C.ar    
   7 C7             3.2226     3.0458    -0.0124 C.ar    
   8 C8             4.0106     1.8943    -0.0261 C.ar    
   9 C9             3.4606     0.6521    -0.0282 C.ar    
  10 N10            4.3278    -0.5474    -0.0427 N.pl3   
  11 O11            5.5393    -0.4229    -0.0541 O.2     
  12 O12            3.8298    -1.6590    -0.0431 O.2     
  13 C13           -1.2068    -0.8315     0.0091 C.3     
  14 C14           -1.6411    -1.1124    -1.4308 C.3     
  15 C15           -2.8558    -1.9438    -1.4237 C.1     
  16 C16           -3.8246    -2.6069    -1.4180 C.1     
  17 C17           -5.0062    -3.4158    -1.4111 C.ar    
  18 C18           -5.5888    -3.8007    -2.6192 C.ar    
  19 C19           -6.7302    -4.5822    -2.5957 C.ar    
  20 C20           -7.2536    -4.9545    -1.3651 C.ar    
  21 C21           -6.6254    -4.5376    -0.2061 C.ar    
  22 N22           -5.5361    -3.7982    -0.2550 N.ar    
  23 C23           -7.1912    -4.9395     1.1316 C.3     
  24 F24           -6.6217    -6.1525     1.5335 F       
  25 H25            1.2787     3.8892     0.0104 H       
  26 H26            3.7040     4.0125    -0.0121 H       
  27 H27            5.0860     1.9933    -0.0362 H       
  28 H28           -0.9992    -1.7737     0.5163 H       
  29 H29           -2.0045    -0.3049     0.5330 H       
  30 H30           -1.8487    -0.1702    -1.9380 H       
  31 H31           -0.8434    -1.6390    -1.9548 H       
  32 H32           -5.1551    -3.4928    -3.5591 H       
  33 H33           -7.2037    -4.8954    -3.5144 H       
  34 H34           -8.1438    -5.5638    -1.3134 H       
  35 H35           -6.9635    -4.1694     1.8686 H       
  36 H36           -8.2719    -5.0552     1.0491 H       
@<TRIPOS>BOND
   1    1    2 1
   2    1    5 2
   3    2    3 1
   4    2   13 1
   5    3    4 2
   6    4    5 ar
   7    4    9 ar
   8    5    6 ar
   9    6    7 ar
  10    6   25 1
  11    7    8 ar
  12    7   26 1
  13    8    9 ar
  14    8   27 1
  15    9   10 1
  16   10   11 2
  17   10   12 2
  18   13   14 1
  19   13   28 1
  20   13   29 1
  21   14   15 1
  22   14   30 1
  23   14   31 1
  24   15   16 3
  25   16   17 1
  26   17   18 ar
  27   17   22 ar
  28   18   19 ar
  29   18   32 1
  30   19   20 ar
  31   19   33 1
  32   20   21 ar
  33   20   34 1
  34   21   22 ar
  35   21   23 1
  36   23   24 1
  37   23   35 1
  38   23   36 1

#	End of record

