#	Name: ASD02500512
#	Creating user name:	WinNT
#	Creation time:	15. 06. 2019 20:22

#	Modifying user name:	WinNT
#	Modification time:	15. 06. 2019 20:22

#	Program:	/corina/corina34_cracker 3.40 0067  02.08.2006

@<TRIPOS>MOLECULE
ASD02500512
  61   65    0    0    0
SMALL
NO_CHARGES


@<TRIPOS>ATOM
   1 N1            -3.9846     3.3297    -2.9846 N.ar    
   2 C2            -4.7983     2.3710    -3.3547 C.ar    
   3 C3            -6.1823     2.5232    -3.3032 C.ar    
   4 C4            -6.7230     3.6956    -2.8575 C.ar    
   5 C5            -5.8461     4.7228    -2.4605 C.ar    
   6 C6            -6.3282     5.9553    -1.9921 C.ar    
   7 C7            -5.4475     6.9241    -1.6178 C.ar    
   8 C8            -4.0732     6.7088    -1.6939 C.ar    
   9 C9            -3.5713     5.5261    -2.1432 C.ar    
  10 C10           -4.4486     4.5016    -2.5388 C.ar    
  11 S11           -1.8287     5.2807    -2.2298 S.o2    
  12 O12           -1.5680     4.6991    -3.4998 O.2     
  13 O13           -1.2305     6.4933    -1.7927 O.2     
  14 N14           -1.4385     4.1334    -1.1011 N.am    
  15 C15           -1.8618     2.8257    -1.2683 C.ar    
  16 C16           -1.6925     2.2011    -2.5029 C.ar    
  17 C17           -2.1117     0.9083    -2.6644 C.ar    
  18 C18           -2.7014     0.2542    -1.5716 C.ar    
  19 C19           -2.8392     0.9411    -0.3646 C.ar    
  20 N20           -2.4177     2.1833    -0.2502 N.ar    
  21 C21           -3.1694    -1.1393    -1.6973 C.2     
  22 O22           -3.7732    -1.4905    -2.6926 O.2     
  23 N23           -2.9277    -2.0231    -0.7088 N.am    
  24 C24           -3.3122    -3.4358    -0.8486 C.3     
  25 C25           -2.0952    -4.3065    -0.5181 C.3     
  26 N26           -1.5739    -3.9324     0.8033 N.3     
  27 C27           -1.0965    -2.5432     0.8142 C.3     
  28 C28           -2.2670    -1.6016     0.5358 C.3     
  29 C29           -0.5654    -4.8126     1.2122 C.ar    
  30 C30           -0.8689    -6.1453     1.4837 C.ar    
  31 C31            0.1329    -7.0117     1.8873 C.ar    
  32 C32            1.4314    -6.5539     2.0208 C.ar    
  33 C33            1.7333    -5.2322     1.7523 C.ar    
  34 C34            0.7398    -4.3621     1.3427 C.ar    
  35 O35           -2.1462    -6.5939     1.3528 O.3     
  36 C36           -2.4049    -7.9411     1.7530 C.3     
  37 H37           -4.3849     1.4384    -3.7093 H       
  38 H38           -6.8270     1.7151    -3.6157 H       
  39 H39           -7.7935     3.8309    -2.8113 H       
  40 H40           -7.3915     6.1342    -1.9293 H       
  41 H41           -5.8193     7.8719    -1.2576 H       
  42 H42           -3.3950     7.4932    -1.3917 H       
  43 H43           -0.9135     4.3775    -0.3229 H       
  44 H44           -1.2352     2.7324    -3.3244 H       
  45 H45           -1.9918     0.4031    -3.6114 H       
  46 H46           -3.2914     0.4485     0.4835 H       
  47 H47           -4.1242    -3.6644    -0.1583 H       
  48 H48           -3.6330    -3.6284    -1.8724 H       
  49 H49           -2.3903    -5.3557    -0.5090 H       
  50 H50           -1.3223    -4.1521    -1.2710 H       
  51 H51           -0.6673    -2.3137     1.7895 H       
  52 H52           -0.3375    -2.4134     0.0427 H       
  53 H53           -1.8972    -0.5820     0.4269 H       
  54 H54           -2.9766    -1.6504     1.3617 H       
  55 H55           -0.0996    -8.0450     2.0983 H       
  56 H56            2.2114    -7.2311     2.3362 H       
  57 H57            2.7484    -4.8791     1.8586 H       
  58 H58            0.9792    -3.3308     1.1292 H       
  59 H59           -3.4408    -8.1945     1.5276 H       
  60 H60           -1.7401    -8.6147     1.2124 H       
  61 H61           -2.2312    -8.0416     2.8244 H       
@<TRIPOS>BOND
   1    1    2 ar
   2    1   10 ar
   3    2    3 ar
   4    2   37 1
   5    3    4 ar
   6    3   38 1
   7    4    5 ar
   8    4   39 1
   9    5    6 ar
  10    5   10 ar
  11    6    7 ar
  12    6   40 1
  13    7    8 ar
  14    7   41 1
  15    8    9 ar
  16    8   42 1
  17    9   10 ar
  18    9   11 1
  19   11   12 2
  20   11   13 2
  21   11   14 am
  22   14   15 1
  23   14   43 1
  24   15   16 ar
  25   15   20 ar
  26   16   17 ar
  27   16   44 1
  28   17   18 ar
  29   17   45 1
  30   18   19 ar
  31   18   21 1
  32   19   20 ar
  33   19   46 1
  34   21   22 2
  35   21   23 am
  36   23   24 1
  37   23   28 1
  38   24   25 1
  39   24   47 1
  40   24   48 1
  41   25   26 1
  42   25   49 1
  43   25   50 1
  44   26   27 1
  45   26   29 1
  46   27   28 1
  47   27   51 1
  48   27   52 1
  49   28   53 1
  50   28   54 1
  51   29   30 ar
  52   29   34 ar
  53   30   31 ar
  54   30   35 1
  55   31   32 ar
  56   31   55 1
  57   32   33 ar
  58   32   56 1
  59   33   34 ar
  60   33   57 1
  61   34   58 1
  62   35   36 1
  63   36   59 1
  64   36   60 1
  65   36   61 1

#	End of record

