#	Name: ASD01320023
#	Creating user name:	WinNT
#	Creation time:	15. 06. 2019 19:15

#	Modifying user name:	WinNT
#	Modification time:	15. 06. 2019 19:15

#	Program:	/corina/corina34_cracker 3.40 0067  02.08.2006

@<TRIPOS>MOLECULE
ASD01320023
  50   51    0    0    0
SMALL
NO_CHARGES


@<TRIPOS>ATOM
   1 C1            -0.0898     1.4445     0.0964 C.2     
   2 C2             0.0583     0.1092     0.0508 C.2     
   3 N3            -1.0288    -0.7158    -0.0204 N.pl3   
   4 C4            -2.2806    -0.2432     0.3129 C.2     
   5 C5            -2.5218     1.0854     0.3678 C.2     
   6 C6            -1.4465     2.0881     0.0684 C.3     
   7 C7            -3.3712    -1.2008     0.6131 C.2     
   8 C8            -3.8595     1.5571     0.7327 C.2     
   9 Cl9           -1.8706     5.0672    -0.0606 Cl      
  10 O10           -4.1482     2.8737     0.6797 O.3     
  11 O11           -3.4930    -1.6501     1.7342 O.2     
  12 O12           -4.2273    -1.5724    -0.3580 O.3     
  13 C13           -1.6783     2.6692    -1.3026 C.ar    
  14 C14           -1.8815     4.0293    -1.4522 C.ar    
  15 C15           -2.0938     4.5622    -2.7114 C.ar    
  16 C16           -2.1028     3.7354    -3.8187 C.ar    
  17 C17           -1.8997     2.3761    -3.6686 C.ar    
  18 C18           -1.6823     1.8439    -2.4115 C.ar    
  19 O19           -4.7098     0.7619     1.0835 O.2     
  20 C20            1.4424    -0.4863     0.0779 C.3     
  21 C21           -0.8640    -2.1060    -0.4524 C.3     
  22 C22           -0.5926    -2.9900     0.7665 C.3     
  23 C23            1.0600     2.2632     0.1787 C.2     
  24 O24            1.8262     2.4622    -0.9143 O.3     
  25 O25            1.3587     2.7883     1.2350 O.2     
  26 C26            2.9728     3.3008    -0.7588 C.3     
  27 C27            4.1774     2.4480    -0.3555 C.3     
  28 C28            3.2696     4.0094    -2.0819 C.3     
  29 H29           -1.4865     2.8882     0.8076 H       
  30 H30           -5.0444     3.1370     0.9299 H       
  31 H31           -4.9223    -2.1991    -0.1144 H       
  32 H32           -2.2528     5.6239    -2.8288 H       
  33 H33           -2.2688     4.1512    -4.8016 H       
  34 H34           -1.9072     1.7303    -4.5342 H       
  35 H35           -1.5238     0.7820    -2.2948 H       
  36 H36            1.7759    -0.5837     1.1111 H       
  37 H37            1.4242    -1.4695    -0.3922 H       
  38 H38            2.1283     0.1637    -0.4655 H       
  39 H39           -1.7737    -2.4422    -0.9498 H       
  40 H40           -0.0249    -2.1742    -1.1448 H       
  41 H41           -0.4699    -4.0243     0.4451 H       
  42 H42            0.3172    -2.6538     1.2639 H       
  43 H43           -1.4316    -2.9218     1.4589 H       
  44 H44            2.7777     4.0431     0.0152 H       
  45 H45            5.0520     3.0877    -0.2369 H       
  46 H46            3.9659     1.9432     0.5871 H       
  47 H47            4.3724     1.7057    -1.1295 H       
  48 H48            2.4114     4.6169    -2.3692 H       
  49 H49            4.1442     4.6490    -1.9633 H       
  50 H50            3.4646     3.2670    -2.8559 H       
@<TRIPOS>BOND
   1    1    2 2
   2    1   23 1
   3    1    6 1
   4    2    3 1
   5    2   20 1
   6    3    4 1
   7    3   21 1
   8    4    5 2
   9    4    7 1
  10    5    6 1
  11    5    8 1
  12    6   13 1
  13    6   29 1
  14    7   11 2
  15    7   12 1
  16    8   10 1
  17    8   19 2
  18    9   14 1
  19   10   30 1
  20   12   31 1
  21   13   14 ar
  22   13   18 ar
  23   14   15 ar
  24   15   16 ar
  25   15   32 1
  26   16   17 ar
  27   16   33 1
  28   17   18 ar
  29   17   34 1
  30   18   35 1
  31   20   36 1
  32   20   37 1
  33   20   38 1
  34   21   22 1
  35   21   39 1
  36   21   40 1
  37   22   41 1
  38   22   42 1
  39   22   43 1
  40   23   24 1
  41   23   25 2
  42   24   26 1
  43   26   27 1
  44   26   28 1
  45   26   44 1
  46   27   45 1
  47   27   46 1
  48   27   47 1
  49   28   48 1
  50   28   49 1
  51   28   50 1

#	End of record

