#	Name: ASD01813101
#	Creating user name:	WinNT
#	Creation time:	15. 06. 2019 19:29

#	Modifying user name:	WinNT
#	Modification time:	15. 06. 2019 19:29

#	Program:	/corina/corina34_cracker 3.40 0067  02.08.2006

@<TRIPOS>MOLECULE
ASD01813101
  45   48    0    0    0
SMALL
NO_CHARGES


@<TRIPOS>ATOM
   1 C1            -0.0173     1.4248     0.0099 C.3     
   2 O2             0.0021    -0.0041     0.0020 O.3     
   3 C3            -1.2008    -0.6378     0.0101 C.2     
   4 C4            -2.3532     0.0825     0.0193 C.2     
   5 C5            -3.6299    -0.6341     0.0273 C.ar    
   6 C6            -4.8418     0.0660     0.0364 C.ar    
   7 C7            -6.0227    -0.6207     0.0433 C.ar    
   8 C8            -6.0316    -2.0084     0.0420 C.ar    
   9 C9            -4.8505    -2.7186     0.0331 C.ar    
  10 C10           -3.6349    -2.0409     0.0254 C.ar    
  11 N11           -2.4452    -2.7389     0.0159 N.am    
  12 C12           -2.4700    -4.2037     0.0135 C.3     
  13 C13           -2.4883    -4.7034    -1.4081 C.ar    
  14 C14           -3.6806    -5.1029    -1.9827 C.ar    
  15 C15           -3.7033    -5.5617    -3.2847 C.ar    
  16 C16           -2.5225    -5.6217    -4.0211 C.ar    
  17 C17           -1.3230    -5.2180    -3.4396 C.ar    
  18 C18           -1.3110    -4.7557    -2.1369 C.ar    
  19 F19           -0.1496    -4.3588    -1.5723 F       
  20 C20           -2.5425    -6.1148    -5.4215 C.2     
  21 C21           -3.6768    -6.5477    -6.1354 C.2     
  22 N22           -3.2917    -6.9037    -7.3322 N.2     
  23 N23           -1.9079    -6.7139    -7.4291 N.pl3   
  24 C24           -1.0833    -6.9920    -8.6076 C.3     
  25 C25           -1.4662    -6.2254    -6.2526 C.2     
  26 C26           -1.2630    -2.0979     0.0029 C.2     
  27 O27           -0.2294    -2.7434    -0.0105 O.2     
  28 H28            1.0053     1.8021     0.0021 H       
  29 H29           -0.5445     1.7859    -0.8732 H       
  30 H30           -0.5275     1.7763     0.9067 H       
  31 H31           -2.3278     1.1622     0.0210 H       
  32 H32           -4.8433     1.1460     0.0382 H       
  33 H33           -6.9571    -0.0791     0.0503 H       
  34 H34           -6.9733    -2.5370     0.0483 H       
  35 H35           -4.8681    -3.7984     0.0324 H       
  36 H36           -1.5828    -4.5829     0.5206 H       
  37 H37           -3.3624    -4.5528     0.5329 H       
  38 H38           -4.5962    -5.0564    -1.4118 H       
  39 H39           -4.6356    -5.8740    -3.7316 H       
  40 H40           -0.4047    -5.2630    -4.0063 H       
  41 H41           -4.6886    -6.5800    -5.7590 H       
  42 H42           -1.0341    -6.1020    -9.2349 H       
  43 H43           -0.0779    -7.2689    -8.2904 H       
  44 H44           -1.5243    -7.8121    -9.1743 H       
  45 H45           -0.4450    -5.9702    -6.0112 H       
@<TRIPOS>BOND
   1    1    2 1
   2    1   28 1
   3    1   29 1
   4    1   30 1
   5    2    3 1
   6    3   26 1
   7    3    4 2
   8    4    5 1
   9    4   31 1
  10    5   10 ar
  11    5    6 ar
  12    6    7 ar
  13    6   32 1
  14    7    8 ar
  15    7   33 1
  16    8    9 ar
  17    8   34 1
  18    9   10 ar
  19    9   35 1
  20   10   11 1
  21   11   12 1
  22   11   26 am
  23   12   13 1
  24   12   36 1
  25   12   37 1
  26   13   18 ar
  27   13   14 ar
  28   14   15 ar
  29   14   38 1
  30   15   16 ar
  31   15   39 1
  32   16   17 ar
  33   16   20 1
  34   17   18 ar
  35   17   40 1
  36   18   19 1
  37   20   25 2
  38   20   21 1
  39   21   22 2
  40   21   41 1
  41   22   23 1
  42   23   24 1
  43   23   25 1
  44   24   42 1
  45   24   43 1
  46   24   44 1
  47   25   45 1
  48   26   27 2

#	End of record

