#	Name: ASD01850025
#	Creating user name:	WinNT
#	Creation time:	15. 06. 2019 19:38

#	Modifying user name:	WinNT
#	Modification time:	15. 06. 2019 19:38

#	Program:	/corina/corina34_cracker 3.40 0067  02.08.2006

@<TRIPOS>MOLECULE
ASD01850025
  52   56    0    0    0
SMALL
NO_CHARGES


@<TRIPOS>ATOM
   1 C1             1.0828     1.1134     0.2212 C.3     
   2 C2             0.8120    -0.3655     0.1174 C.ar    
   3 C3             0.8093    -1.1492     1.2561 C.ar    
   4 C4             0.5610    -2.5058     1.1609 C.ar    
   5 C5             0.3149    -3.0784    -0.0730 C.ar    
   6 C6             0.3167    -2.2945    -1.2115 C.ar    
   7 C7             0.5607    -0.9372    -1.1158 C.ar    
   8 C8             0.0452    -4.5574    -0.1769 C.3     
   9 N9            -0.6197    -5.0545     1.0335 N.am    
  10 C10            0.4514    -5.5395     1.9301 C.3     
  11 C11            1.7689    -5.3546     1.1388 C.3     
  12 N12            1.3128    -5.3240    -0.2618 N.am    
  13 C13            1.4848    -5.6806    -1.5350 C.2     
  14 O14            2.5364    -6.0418    -2.0260 O.2     
  15 C15            0.1995    -5.5690    -2.2581 C.ar    
  16 C16           -0.7195    -4.8757    -1.4300 C.ar    
  17 C17           -2.0062    -4.6520    -1.8624 C.ar    
  18 C18           -2.4039    -5.0936    -3.1129 C.ar    
  19 C19           -1.5105    -5.7609    -3.9326 C.ar    
  20 C20           -0.2089    -5.9945    -3.5220 C.ar    
  21 C21           -1.9448    -5.0660     1.2794 C.2     
  22 O22           -2.7130    -4.5423     0.4960 O.2     
  23 C23           -2.4633    -5.7143     2.4998 C.ar    
  24 C24           -3.8397    -5.8810     2.6738 C.ar    
  25 C25           -4.3195    -6.4863     3.8138 C.ar    
  26 C26           -3.4366    -6.9313     4.7907 C.ar    
  27 C27           -2.0668    -6.7670     4.6217 C.ar    
  28 C28           -1.5788    -6.1683     3.4817 C.ar    
  29 O29           -3.9134    -7.5274     5.9129 O.3     
  30 C30           -2.9509    -7.9608     6.8761 C.3     
  31 F31           -2.2085    -6.8616     7.3208 F       
  32 F32           -3.6095    -8.5486     7.9615 F       
  33 F33           -2.0925    -8.8967     6.2891 F       
  34 H34            2.1536     1.2942     0.1276 H       
  35 H35            0.5549     1.6363    -0.5763 H       
  36 H36            0.7356     1.4794     1.1875 H       
  37 H37            1.0016    -0.7018     2.2201 H       
  38 H38            0.5596    -3.1182     2.0504 H       
  39 H39            0.1247    -2.7420    -2.1756 H       
  40 H40            0.5621    -0.3247    -2.0053 H       
  41 H41            0.4746    -4.9470     2.8448 H       
  42 H42            0.2978    -6.5926     2.1659 H       
  43 H43            2.2514    -4.4149     1.4076 H       
  44 H44            2.4410    -6.1961     1.3071 H       
  45 H45           -2.7066    -4.1319    -1.2258 H       
  46 H46           -3.4147    -4.9169    -3.4497 H       
  47 H47           -1.8256    -6.0988    -4.9088 H       
  48 H48            0.4781    -6.5164    -4.1716 H       
  49 H49           -4.5264    -5.5352     1.9152 H       
  50 H50           -5.3832    -6.6151     3.9491 H       
  51 H51           -1.3840    -7.1138     5.3833 H       
  52 H52           -0.5143    -6.0413     3.3510 H       
@<TRIPOS>BOND
   1    1    2 1
   2    1   34 1
   3    1   35 1
   4    1   36 1
   5    2    3 ar
   6    2    7 ar
   7    3    4 ar
   8    3   37 1
   9    4    5 ar
  10    4   38 1
  11    5    6 ar
  12    5    8 1
  13    6    7 ar
  14    6   39 1
  15    7   40 1
  16    8    9 1
  17    8   12 1
  18    8   16 1
  19    9   10 1
  20    9   21 am
  21   10   11 1
  22   10   41 1
  23   10   42 1
  24   11   12 1
  25   11   43 1
  26   11   44 1
  27   12   13 am
  28   13   14 2
  29   13   15 1
  30   15   16 ar
  31   15   20 ar
  32   16   17 ar
  33   17   18 ar
  34   17   45 1
  35   18   19 ar
  36   18   46 1
  37   19   20 ar
  38   19   47 1
  39   20   48 1
  40   21   22 2
  41   21   23 1
  42   23   24 ar
  43   23   28 ar
  44   24   25 ar
  45   24   49 1
  46   25   26 ar
  47   25   50 1
  48   26   27 ar
  49   26   29 1
  50   27   28 ar
  51   27   51 1
  52   28   52 1
  53   29   30 1
  54   30   31 1
  55   30   32 1
  56   30   33 1

#	End of record

