#	Name: ASD03091967
#	Creating user name:	WinNT
#	Creation time:	15. 06. 2019 20:31

#	Modifying user name:	WinNT
#	Modification time:	15. 06. 2019 20:31

#	Program:	/corina/corina34_cracker 3.40 0067  02.08.2006

@<TRIPOS>MOLECULE
ASD03091967
  58   62    0    0    0
SMALL
NO_CHARGES


@<TRIPOS>ATOM
   1 C1            -0.0170     1.3998     0.0097 C.ar    
   2 C2            -1.2283     2.0682     0.0306 C.ar    
   3 C3            -2.4087     1.3494     0.0435 C.ar    
   4 C4            -2.3914    -0.0360     0.0356 C.ar    
   5 C5            -1.1918    -0.7183     0.0148 C.ar    
   6 C6             0.0021    -0.0041     0.0020 C.ar    
   7 O7             1.1631     2.0665     0.0021 O.3     
   8 C8             2.2620     1.4580     0.6804 C.3     
   9 N9             2.4081     0.0565     0.2863 N.am    
  10 C10            1.3144    -0.6822    -0.0142 C.2     
  11 C11           -3.6892    -0.8018     0.0501 C.3     
  12 C12           -4.2052    -0.9426    -1.3588 C.ar    
  13 C13           -5.0252     0.0145    -1.8606 C.ar    
  14 C14           -3.8221    -2.0523    -2.1157 C.ar    
  15 C15           -4.2533    -2.2328    -3.3889 C.ar    
  16 C16           -5.1136    -1.2797    -3.9753 C.ar    
  17 C17           -5.5130    -0.1087    -3.1791 C.ar    
  18 O18            1.4088    -1.8630    -0.2883 O.2     
  19 C19            3.7406    -0.5484     0.2167 C.3     
  20 C20            3.8138    -1.7368     1.1790 C.3     
  21 O21            5.0948    -2.3604     1.0671 O.3     
  22 C22            4.0061    -1.0394    -1.2098 C.3     
  23 C23            5.3683    -1.7386    -1.2521 C.3     
  24 C24            5.3787    -2.8810    -0.2331 C.3     
  25 O25            4.0123     0.0743    -2.1052 O.3     
  26 C26           -3.7269     2.0794     0.0669 C.3     
  27 N27           -5.6978    -1.1565    -5.1533 N.2     
  28 N28           -6.4544     0.0208    -5.1647 N.pl3   
  29 C29           -6.3392     0.6499    -3.9873 C.2     
  30 C30           -1.2604     3.5748     0.0397 C.3     
  31 C31           -7.2473     0.4997    -6.2997 C.3     
  32 H32           -1.1800    -1.7983     0.0090 H       
  33 H33            3.1773     1.9966     0.4346 H       
  34 H34            2.0934     1.5120     1.7559 H       
  35 H35           -3.5226    -1.7910     0.4766 H       
  36 H36           -4.4213    -0.2647     0.6532 H       
  37 H37           -5.3030     0.8646    -1.2552 H       
  38 H38           -3.1641    -2.7867    -1.6750 H       
  39 H39           -3.9401    -3.1004    -3.9508 H       
  40 H40            4.4916     0.1918     0.4928 H       
  41 H41            3.6681    -1.3867     2.2008 H       
  42 H42            3.0356    -2.4572     0.9269 H       
  43 H43            3.2264    -1.7417    -1.5047 H       
  44 H44            5.5409    -2.1397    -2.2508 H       
  45 H45            6.1528    -1.0232    -1.0053 H       
  46 H46            6.3601    -3.3551    -0.2285 H       
  47 H47            4.6209    -3.6163    -0.5037 H       
  48 H48            4.1751    -0.1640    -3.0281 H       
  49 H49           -4.0596     2.2614    -0.9550 H       
  50 H50           -4.4684     1.4737     0.5879 H       
  51 H51           -3.6062     3.0309     0.5846 H       
  52 H52           -6.8124     1.5820    -3.7157 H       
  53 H53           -1.2825     3.9440    -0.9856 H       
  54 H54           -2.1506     3.9161     0.5681 H       
  55 H55           -0.3712     3.9541     0.5433 H       
  56 H56           -8.2586     0.0988    -6.2314 H       
  57 H57           -7.2863     1.5889    -6.2819 H       
  58 H58           -6.7869     0.1678    -7.2303 H       
@<TRIPOS>BOND
   1    1    6 ar
   2    1    7 1
   3    1    2 ar
   4    2    3 ar
   5    2   30 1
   6    3    4 ar
   7    3   26 1
   8    4    5 ar
   9    4   11 1
  10    5    6 ar
  11    5   32 1
  12    6   10 1
  13    7    8 1
  14    8    9 1
  15    8   33 1
  16    8   34 1
  17    9   10 am
  18    9   19 1
  19   10   18 2
  20   11   12 1
  21   11   35 1
  22   11   36 1
  23   12   14 ar
  24   12   13 ar
  25   13   17 ar
  26   13   37 1
  27   14   15 ar
  28   14   38 1
  29   15   16 ar
  30   15   39 1
  31   16   27 2
  32   16   17 ar
  33   17   29 2
  34   19   22 1
  35   19   20 1
  36   19   40 1
  37   20   21 1
  38   20   41 1
  39   20   42 1
  40   21   24 1
  41   22   23 1
  42   22   25 1
  43   22   43 1
  44   23   24 1
  45   23   44 1
  46   23   45 1
  47   24   46 1
  48   24   47 1
  49   25   48 1
  50   26   49 1
  51   26   50 1
  52   26   51 1
  53   27   28 1
  54   28   29 1
  55   28   31 1
  56   29   52 1
  57   30   53 1
  58   30   54 1
  59   30   55 1
  60   31   56 1
  61   31   57 1
  62   31   58 1

#	End of record

