#	Name: ASD04840099
#	Creating user name:	WinNT
#	Creation time:	15. 06. 2019 20:52

#	Modifying user name:	WinNT
#	Modification time:	15. 06. 2019 20:52

#	Program:	/corina/corina34_cracker 3.40 0067  02.08.2006

@<TRIPOS>MOLECULE
ASD04840099
  34   36    0    0    0
SMALL
NO_CHARGES


@<TRIPOS>ATOM
   1 C1             0.0350     1.4076     0.0240 C.ar    
   2 C2             0.0269    -0.0032     0.0076 C.ar    
   3 N3             2.3837     0.0686     0.1164 N.ar    
   4 C4             2.3330     1.3807     0.1289 C.ar    
   5 N5             1.1890     2.0405     0.0840 N.ar    
   6 C6            -1.0803    -0.9350    -0.0541 C.2     
   7 C7            -0.7255    -2.2195    -0.0527 C.2     
   8 S8             1.0169    -2.3995     0.0252 S.3     
   9 C9             1.2655    -0.6603     0.0569 C.ar    
  10 C10           -1.6790    -3.3483    -0.1092 C.ar    
  11 C11           -2.5181    -0.4878    -0.1145 C.3     
  12 P12           -2.9979    -0.2172    -1.8523 P.3     
  13 O13           -2.0565     0.7360    -2.4813 O.2     
  14 O14           -2.9537    -1.6175    -2.6455 O.3     
  15 O15           -4.4898     0.3852    -1.9096 O.3     
  16 C16           -1.5350    -4.3392    -1.0813 C.ar    
  17 C17           -2.4277    -5.3900    -1.1283 C.ar    
  18 C18           -3.4643    -5.4624    -0.2147 C.ar    
  19 C19           -3.6129    -4.4830     0.7511 C.ar    
  20 C20           -2.7233    -3.4302     0.8128 C.ar    
  21 C21           -4.4360    -6.6128    -0.2723 C.3     
  22 H22           -0.8915     1.9610    -0.0167 H       
  23 H23            3.2564     1.9388     0.1775 H       
  24 H24           -3.1561    -1.2555     0.3233 H       
  25 H25           -2.6332     0.4417     0.4432 H       
  26 H26           -3.5475    -2.2914    -2.2871 H       
  27 H27           -4.8115     0.5546    -2.8056 H       
  28 H28           -0.7267    -4.2835    -1.7953 H       
  29 H29           -2.3174    -6.1576    -1.8800 H       
  30 H30           -4.4245    -4.5449     1.4609 H       
  31 H31           -2.8401    -2.6665     1.5675 H       
  32 H32           -4.0707    -7.4286     0.3515 H       
  33 H33           -5.4095    -6.2847     0.0920 H       
  34 H34           -4.5307    -6.9573    -1.3021 H       
@<TRIPOS>BOND
   1    1    2 ar
   2    1    5 ar
   3    1   22 1
   4    2    9 ar
   5    2    6 1
   6    3    4 ar
   7    3    9 ar
   8    4    5 ar
   9    4   23 1
  10    6    7 2
  11    6   11 1
  12    7    8 1
  13    7   10 1
  14    8    9 1
  15   10   16 ar
  16   10   20 ar
  17   11   12 1
  18   11   24 1
  19   11   25 1
  20   12   13 2
  21   12   14 1
  22   12   15 1
  23   14   26 1
  24   15   27 1
  25   16   17 ar
  26   16   28 1
  27   17   18 ar
  28   17   29 1
  29   18   19 ar
  30   18   21 1
  31   19   20 ar
  32   19   30 1
  33   20   31 1
  34   21   32 1
  35   21   33 1
  36   21   34 1

#	End of record

