#	Name: ASD01911561
#	Creating user name:	WinNT
#	Creation time:	15. 06. 2019 19:58

#	Modifying user name:	WinNT
#	Modification time:	15. 06. 2019 19:58

#	Program:	/corina/corina34_cracker 3.40 0067  02.08.2006

@<TRIPOS>MOLECULE
ASD01911561
  42   44    0    0    0
SMALL
NO_CHARGES


@<TRIPOS>ATOM
   1 N1            -0.0069     1.4096    -0.0033 N.2     
   2 N2            -0.0071     0.0096    -0.0453 N.pl3   
   3 C3             1.2420     1.8244     0.0384 C.2     
   4 C4             2.0819     0.6980     0.0242 C.2     
   5 C5             1.2898    -0.4114    -0.0276 C.2     
   6 C6             1.7537    -1.8164    -0.0594 C.ar    
   7 C7             1.6866     3.2395     0.0908 C.ar    
   8 C8            -1.1917    -0.8507    -0.0980 C.3     
   9 C9            -1.6295    -1.0154    -1.5306 C.2     
  10 O10           -2.7020    -1.7679    -1.8223 O.3     
  11 O11           -1.0150    -0.4701    -2.4166 O.2     
  12 C12            3.0442     3.5477     0.0261 C.ar    
  13 C13            0.7471     4.2627     0.1990 C.ar    
  14 C14            1.1632     5.5770     0.2476 C.ar    
  15 C15            2.5163     5.8806     0.1882 C.ar    
  16 C16            3.4544     4.8634     0.0751 C.ar    
  17 C17            0.9282    -2.8150    -0.5764 C.ar    
  18 O18            2.9232     7.1763     0.2354 O.3     
  19 C19            1.3665    -4.1231    -0.6032 C.ar    
  20 C20            2.6214    -4.4452    -0.1183 C.ar    
  21 C21            3.4448    -3.4595     0.3958 C.ar    
  22 C22            3.0205    -2.1468     0.4224 C.ar    
  23 C23            4.3302     7.4171     0.1696 C.3     
  24 C24            0.1477     6.6843     0.3646 C.3     
  25 H25            3.1615     0.7087     0.0501 H       
  26 H26           -0.9507    -1.8269     0.3228 H       
  27 H27           -1.9973    -0.3955     0.4780 H       
  28 H28           -2.9444    -1.8439    -2.7554 H       
  29 H29            3.7744     2.7568    -0.0620 H       
  30 H30           -0.3059     4.0271     0.2445 H       
  31 H31            4.5066     5.1025     0.0291 H       
  32 H32           -0.0519    -2.5648    -0.9546 H       
  33 H33            0.7283    -4.8971    -1.0033 H       
  34 H34            2.9597    -5.4707    -0.1408 H       
  35 H35            4.4233    -3.7173     0.7732 H       
  36 H36            3.6643    -1.3780     0.8236 H       
  37 H37            4.5178     8.4898     0.2170 H       
  38 H38            4.8227     6.9248     1.0082 H       
  39 H39            4.7234     7.0205    -0.7664 H       
  40 H40           -0.0401     6.8953     1.4174 H       
  41 H41            0.5300     7.5810    -0.1231 H       
  42 H42           -0.7814     6.3774    -0.1157 H       
@<TRIPOS>BOND
   1    1    2 1
   2    1    3 2
   3    2    8 1
   4    2    5 1
   5    3    4 1
   6    3    7 1
   7    4    5 2
   8    4   25 1
   9    5    6 1
  10    6   17 ar
  11    6   22 ar
  12    7   12 ar
  13    7   13 ar
  14    8    9 1
  15    8   26 1
  16    8   27 1
  17    9   10 1
  18    9   11 2
  19   10   28 1
  20   12   16 ar
  21   12   29 1
  22   13   14 ar
  23   13   30 1
  24   14   15 ar
  25   14   24 1
  26   15   16 ar
  27   15   18 1
  28   16   31 1
  29   17   19 ar
  30   17   32 1
  31   18   23 1
  32   19   20 ar
  33   19   33 1
  34   20   21 ar
  35   20   34 1
  36   21   22 ar
  37   21   35 1
  38   22   36 1
  39   23   37 1
  40   23   38 1
  41   23   39 1
  42   24   40 1
  43   24   41 1
  44   24   42 1

#	End of record

