#	Name: ASD04840004
#	Creating user name:	WinNT
#	Creation time:	15. 06. 2019 20:52

#	Modifying user name:	WinNT
#	Modification time:	15. 06. 2019 20:52

#	Program:	/corina/corina34_cracker 3.40 0067  02.08.2006

@<TRIPOS>MOLECULE
ASD04840004
  37   39    0    0    0
SMALL
NO_CHARGES


@<TRIPOS>ATOM
   1 C1            -0.0167     1.3783     0.0096 C.ar    
   2 C2             0.0021    -0.0041     0.0020 C.ar    
   3 C3             1.2028    -0.6818    -0.0126 C.ar    
   4 C4             2.4082     0.0219    -0.0204 C.ar    
   5 C5             2.3786     1.4074    -0.0131 C.ar    
   6 C6             1.1733     2.0823     0.0020 C.ar    
   7 N7             3.7191    -0.4653    -0.0351 N.am    
   8 C8             4.6693     0.6503    -0.0383 C.3     
   9 C9             3.8015     1.9192    -0.0238 C.3     
  10 C10            5.5404     0.5986     1.1903 C.2     
  11 C11            4.0587    -1.7695    -0.0444 C.2     
  12 O12            6.6993     1.2751     1.2204 O.3     
  13 O13            5.1956    -0.0519     2.1484 O.2     
  14 O14            5.2301    -2.0923    -0.0566 O.2     
  15 O15            3.0999    -2.7149    -0.0403 O.3     
  16 C16            3.5388    -4.0989    -0.0509 C.3     
  17 C17            2.3363    -5.0073    -0.0444 C.ar    
  18 C18            1.7739    -5.4181    -1.2385 C.ar    
  19 C19            0.6709    -6.2513    -1.2325 C.ar    
  20 C20            0.1305    -6.6740    -0.0324 C.ar    
  21 C21            0.6934    -6.2638     1.1617 C.ar    
  22 C22            1.7991    -5.4342     1.1557 C.ar    
  23 H23           -0.9584     1.9070     0.0170 H       
  24 H24           -0.9268    -0.5549     0.0079 H       
  25 H25            1.2106    -1.7618    -0.0178 H       
  26 H26            1.1605     3.1622     0.0076 H       
  27 H27            5.2826     0.6219    -0.9390 H       
  28 H28            3.9845     2.5151    -0.9180 H       
  29 H29            4.0012     2.5061     0.8727 H       
  30 H30            7.2239     1.2116     2.0302 H       
  31 H31            4.1303    -4.2857    -0.9472 H       
  32 H32            4.1464    -4.2942     0.8327 H       
  33 H33            2.1961    -5.0879    -2.1761 H       
  34 H34            0.2311    -6.5717    -2.1654 H       
  35 H35           -0.7317    -7.3243    -0.0277 H       
  36 H36            0.2710    -6.5938     2.0993 H       
  37 H37            2.2389    -5.1138     2.0886 H       
@<TRIPOS>BOND
   1    1    2 ar
   2    1    6 ar
   3    1   23 1
   4    2    3 ar
   5    2   24 1
   6    3    4 ar
   7    3   25 1
   8    4    5 ar
   9    4    7 1
  10    5    6 ar
  11    5    9 1
  12    6   26 1
  13    7    8 1
  14    7   11 am
  15    8    9 1
  16    8   10 1
  17    8   27 1
  18    9   28 1
  19    9   29 1
  20   10   12 1
  21   10   13 2
  22   11   14 2
  23   11   15 1
  24   12   30 1
  25   15   16 1
  26   16   17 1
  27   16   31 1
  28   16   32 1
  29   17   18 ar
  30   17   22 ar
  31   18   19 ar
  32   18   33 1
  33   19   20 ar
  34   19   34 1
  35   20   21 ar
  36   20   35 1
  37   21   22 ar
  38   21   36 1
  39   22   37 1

#	End of record

