#	Name: ASD03330126
#	Creating user name:	WinNT
#	Creation time:	15. 06. 2019 20:36

#	Modifying user name:	WinNT
#	Modification time:	15. 06. 2019 20:36

#	Program:	/corina/corina34_cracker 3.40 0067  02.08.2006

@<TRIPOS>MOLECULE
ASD03330126
  72   76    0    0    0
SMALL
NO_CHARGES


@<TRIPOS>ATOM
   1 N1            -0.2537     1.4708    -0.1221 N.3     
   2 C2            -0.0536     0.0250     0.0392 C.3     
   3 C3             0.5516    -0.5536    -1.2418 C.3     
   4 C4             1.8884     0.1370    -1.5261 C.3     
   5 C5             1.6596     1.6466    -1.6416 C.3     
   6 C6             1.0222     2.1614    -0.3490 C.3     
   7 C7             2.8491    -0.1420    -0.3990 C.2     
   8 O8             3.4069     0.7763     0.1636 O.2     
   9 N9             3.0883    -1.4119    -0.0162 N.am    
  10 C10            2.4606    -0.3859    -2.8184 C.ar    
  11 C11            3.6170     0.1669    -3.3361 C.ar    
  12 C12            4.1419    -0.3128    -4.5215 C.ar    
  13 C13            3.5106    -1.3456    -5.1891 C.ar    
  14 C14            2.3547    -1.8991    -4.6709 C.ar    
  15 C15            1.8322    -1.4223    -3.4832 C.ar    
  16 C16           -0.9602     2.0368     1.0349 C.3     
  17 C17           -0.9316     3.5413     0.9541 C.2     
  18 C18           -1.8523     4.2881     0.3485 C.2     
  19 C19           -1.6260     5.6596     0.3970 C.2     
  20 C20           -0.4834     6.0121     1.0660 C.2     
  21 S21            0.3180     4.5608     1.6526 S.3     
  22 C22           -0.0031     7.3934     1.2671 C.ar    
  23 C23           -0.8794     8.3800     1.7252 C.ar    
  24 C24           -0.4265     9.6684     1.9120 C.ar    
  25 C25            0.8987     9.9863     1.6450 C.ar    
  26 C26            1.7732     9.0088     1.1891 C.ar    
  27 C27            1.3305     7.7164     1.0053 C.ar    
  28 O28            1.3408    11.2579     1.8302 O.3     
  29 C29            2.7153    11.5161     1.5364 C.3     
  30 C30            3.0256    12.9903     1.8032 C.3     
  31 C31            4.4972    13.2667     1.4887 C.3     
  32 O32            4.7871    14.6437     1.7379 O.3     
  33 C33           -2.5384     6.6506    -0.2199 C.ar    
  34 C34           -2.1139     7.4089    -1.3122 C.ar    
  35 C35           -2.9689     8.3304    -1.8831 C.ar    
  36 C36           -4.2449     8.5026    -1.3738 C.ar    
  37 C37           -4.6705     7.7529    -0.2906 C.ar    
  38 C38           -3.8263     6.8251     0.2847 C.ar    
  39 Cl39          -5.3148     9.6634    -2.0959 Cl      
  40 Cl40          -0.5141     7.1942    -1.9512 Cl      
  41 H41            0.6223    -0.1571     0.8747 H       
  42 H42           -1.0123    -0.4546     0.2367 H       
  43 H43            0.7145    -1.6240    -1.1161 H       
  44 H44           -0.1301    -0.3840    -2.0752 H       
  45 H45            2.6140     2.1481    -1.8015 H       
  46 H46            0.9953     1.8508    -2.4813 H       
  47 H47            0.8448     3.2336    -0.4335 H       
  48 H48            1.6931     1.9693     0.4883 H       
  49 H49            2.5887    -2.1411    -0.4156 H       
  50 H50            3.7601    -1.5966     0.6586 H       
  51 H51            4.1102     0.9739    -2.8145 H       
  52 H52            5.0449     0.1197    -4.9263 H       
  53 H53            3.9203    -1.7199    -6.1156 H       
  54 H54            1.8613    -2.7058    -5.1926 H       
  55 H55            0.9312    -1.8572    -3.0765 H       
  56 H56           -1.9944     1.6924     1.0332 H       
  57 H57           -0.4709     1.7128     1.9534 H       
  58 H58           -2.7124     3.8601    -0.1450 H       
  59 H59           -1.9104     8.1338     1.9324 H       
  60 H60           -1.1033    10.4319     2.2661 H       
  61 H61            2.8028     9.2606     0.9820 H       
  62 H62            2.0125     6.9557     0.6553 H       
  63 H63            3.3456    10.8917     2.1696 H       
  64 H64            2.9122    11.2871     0.4891 H       
  65 H65            2.3953    13.6147     1.1700 H       
  66 H66            2.8286    13.2193     2.8505 H       
  67 H67            5.1275    12.6424     2.1219 H       
  68 H68            4.6942    13.0377     0.4414 H       
  69 H69            5.7047    14.8910     1.5594 H       
  70 H70           -2.6418     8.9182    -2.7280 H       
  71 H71           -5.6669     7.8915     0.1024 H       
  72 H72           -4.1615     6.2378     1.1269 H       
@<TRIPOS>BOND
   1    1    2 1
   2    1    6 1
   3    1   16 1
   4    2    3 1
   5    2   41 1
   6    2   42 1
   7    3    4 1
   8    3   43 1
   9    3   44 1
  10    4    5 1
  11    4    7 1
  12    4   10 1
  13    5    6 1
  14    5   45 1
  15    5   46 1
  16    6   47 1
  17    6   48 1
  18    7    8 2
  19    7    9 am
  20    9   49 1
  21    9   50 1
  22   10   11 ar
  23   10   15 ar
  24   11   12 ar
  25   11   51 1
  26   12   13 ar
  27   12   52 1
  28   13   14 ar
  29   13   53 1
  30   14   15 ar
  31   14   54 1
  32   15   55 1
  33   16   17 1
  34   16   56 1
  35   16   57 1
  36   17   18 2
  37   17   21 1
  38   18   19 1
  39   18   58 1
  40   19   20 2
  41   19   33 1
  42   20   21 1
  43   20   22 1
  44   22   23 ar
  45   22   27 ar
  46   23   24 ar
  47   23   59 1
  48   24   25 ar
  49   24   60 1
  50   25   26 ar
  51   25   28 1
  52   26   27 ar
  53   26   61 1
  54   27   62 1
  55   28   29 1
  56   29   30 1
  57   29   63 1
  58   29   64 1
  59   30   31 1
  60   30   65 1
  61   30   66 1
  62   31   32 1
  63   31   67 1
  64   31   68 1
  65   32   69 1
  66   33   34 ar
  67   33   38 ar
  68   34   35 ar
  69   34   40 1
  70   35   36 ar
  71   35   70 1
  72   36   37 ar
  73   36   39 1
  74   37   38 ar
  75   37   71 1
  76   38   72 1

#	End of record

