#	Name: ASD01820094
#	Creating user name:	WinNT
#	Creation time:	15. 06. 2019 19:36

#	Modifying user name:	WinNT
#	Modification time:	15. 06. 2019 19:36

#	Program:	/corina/corina34_cracker 3.40 0067  02.08.2006

@<TRIPOS>MOLECULE
ASD01820094
  54   56    0    0    0
SMALL
NO_CHARGES


@<TRIPOS>ATOM
   1 C1            -0.0416     1.1147     0.2004 C.ar    
   2 C2             0.1249    -0.2527     0.3746 C.ar    
   3 C3             1.3895    -0.8049     0.3432 C.ar    
   4 C4             2.5005    -0.0025     0.1383 C.ar    
   5 C5             2.3549     1.3564    -0.0361 C.ar    
   6 C6             1.0811     1.9302    -0.0073 C.ar    
   7 N7            -1.3171     1.6732     0.2260 N.am    
   8 C8            -2.3643     0.9849    -0.2703 C.2     
   9 C9            -3.7606     1.5348    -0.1329 C.3     
  10 O10           -2.1828    -0.0769    -0.8274 O.2     
  11 C11           -4.0986     1.7038     1.3497 C.3     
  12 N12           -4.7159     0.6050    -0.7500 N.3     
  13 C13            0.9179     3.3835    -0.1941 C.2     
  14 O14           -0.1955     3.8658    -0.2654 O.2     
  15 N15            2.0033     4.1772    -0.2859 N.am    
  16 C16            1.8541     5.5057    -0.4567 C.2     
  17 N17            2.9395     6.2995    -0.5484 N.am    
  18 O18            0.7406     5.9881    -0.5279 O.2     
  19 C19            2.7866     7.6908    -0.6120 C.ar    
  20 C20            1.6152     9.6816     0.0327 C.ar    
  21 C21            1.7655     8.3102     0.0958 C.ar    
  22 C22            3.6598     8.4513    -1.3785 C.ar    
  23 C23            3.5086     9.8221    -1.4408 C.ar    
  24 C24            2.4844    10.4401    -0.7377 C.ar    
  25 O25            2.3359    11.7903    -0.7994 O.3     
  26 C26            4.4565    10.6476    -2.2722 C.3     
  27 C27            1.7098    12.3125    -1.8814 C.ar    
  28 C28            0.4720    13.3443    -4.0186 C.ar    
  29 C29            0.5579    11.9713    -3.8432 C.ar    
  30 N30            1.1769    11.4953    -2.7753 N.ar    
  31 N31            1.6416    13.6272    -2.0153 N.ar    
  32 C32            1.0373    14.1707    -3.0591 C.ar    
  33 Br33          -0.4021    14.0732    -5.5288 Br      
  34 H34           -0.7359    -0.8848     0.5352 H       
  35 H35            1.5138    -1.8691     0.4796 H       
  36 H36            3.4857    -0.4446     0.1155 H       
  37 H37            3.2241     1.9774    -0.1947 H       
  38 H38           -1.4519     2.5576     0.6010 H       
  39 H39           -3.8210     2.5020    -0.6318 H       
  40 H40           -4.0382     0.7366     1.8487 H       
  41 H41           -3.3898     2.3937     1.8076 H       
  42 H42           -5.1086     2.1015     1.4491 H       
  43 H43           -4.6342    -0.3170    -0.3482 H       
  44 H44           -5.6603     0.9514    -0.6709 H       
  45 H45            2.8918     3.7923    -0.2290 H       
  46 H46            3.8265     5.9075    -0.5704 H       
  47 H47            0.8209    10.1636     0.5833 H       
  48 H48            1.0885     7.7197     0.6954 H       
  49 H49            4.4573     7.9704    -1.9255 H       
  50 H50            4.0643    10.7413    -3.2849 H       
  51 H51            4.5597    11.6383    -1.8294 H       
  52 H52            5.4310    10.1603    -2.3035 H       
  53 H53            0.1284    11.2991    -4.5713 H       
  54 H54            0.9884    15.2444    -3.1647 H       
@<TRIPOS>BOND
   1    1    2 ar
   2    1    6 ar
   3    1    7 1
   4    2    3 ar
   5    2   34 1
   6    3    4 ar
   7    3   35 1
   8    4    5 ar
   9    4   36 1
  10    5    6 ar
  11    5   37 1
  12    6   13 1
  13    7    8 am
  14    7   38 1
  15    8    9 1
  16    8   10 2
  17    9   11 1
  18    9   12 1
  19    9   39 1
  20   11   40 1
  21   11   41 1
  22   11   42 1
  23   12   43 1
  24   12   44 1
  25   13   14 2
  26   13   15 am
  27   15   16 am
  28   15   45 1
  29   16   17 am
  30   16   18 2
  31   17   19 1
  32   17   46 1
  33   19   22 ar
  34   19   21 ar
  35   20   21 ar
  36   20   24 ar
  37   20   47 1
  38   21   48 1
  39   22   23 ar
  40   22   49 1
  41   23   24 ar
  42   23   26 1
  43   24   25 1
  44   25   27 1
  45   26   50 1
  46   26   51 1
  47   26   52 1
  48   27   31 ar
  49   27   30 ar
  50   28   29 ar
  51   28   32 ar
  52   28   33 1
  53   29   30 ar
  54   29   53 1
  55   31   32 ar
  56   32   54 1

#	End of record

