#	Name: ASD01840213
#	Creating user name:	WinNT
#	Creation time:	15. 06. 2019 19:37

#	Modifying user name:	WinNT
#	Modification time:	15. 06. 2019 19:37

#	Program:	/corina/corina34_cracker 3.40 0067  02.08.2006

@<TRIPOS>MOLECULE
ASD01840213
  45   44    0    0    0
SMALL
NO_CHARGES


@<TRIPOS>ATOM
   1 O1            -0.0173     1.4248     0.0099 O.3     
   2 C2             0.0021    -0.0041     0.0020 C.3     
   3 C3            -1.4333    -0.5336     0.0129 C.3     
   4 O4            -2.0889    -0.1578    -1.2000 O.3     
   5 C5            -3.4428    -0.6056    -1.2917 C.3     
   6 C6            -4.0419    -0.1488    -2.6234 C.3     
   7 O7            -3.3570    -0.7927    -3.6996 O.3     
   8 C8            -3.8419    -0.4333    -4.9949 C.3     
   9 C9            -3.0402    -1.1781    -6.0643 C.3     
  10 O10           -3.2794    -2.5820    -5.9473 O.3     
  11 C11           -2.5739    -3.3736    -6.9053 C.3     
  12 C12           -2.9035    -4.8517    -6.6874 C.3     
  13 O13           -4.2885    -5.0759    -6.9582 O.3     
  14 C14           -4.7028    -6.4324    -6.7837 C.3     
  15 C15           -6.1949    -6.5545    -7.0991 C.3     
  16 O16           -6.4146    -6.2670    -8.4815 O.3     
  17 C17           -7.7834    -6.3535    -8.8828 C.3     
  18 C18           -7.8995    -6.0279   -10.3732 C.3     
  19 O19           -7.2187    -7.0279   -11.1337 O.3     
  20 H20            0.8606     1.8301     0.0037 H       
  21 H21            0.5123    -0.3556    -0.8948 H       
  22 H22            0.5293    -0.3651     0.8851 H       
  23 H23           -1.4190    -1.6203     0.0965 H       
  24 H24           -1.9701    -0.1109     0.8621 H       
  25 H25           -3.4702    -1.6938    -1.2352 H       
  26 H26           -4.0213    -0.1844    -0.4695 H       
  27 H27           -5.0990    -0.4127    -2.6558 H       
  28 H28           -3.9341     0.9316    -2.7187 H       
  29 H29           -4.8948    -0.7031    -5.0765 H       
  30 H30           -3.7299     0.6413    -5.1395 H       
  31 H31           -3.3493    -0.8380    -7.0527 H       
  32 H32           -1.9776    -0.9778    -5.9270 H       
  33 H33           -2.8733    -3.0791    -7.9111 H       
  34 H34           -1.5016    -3.2189    -6.7854 H       
  35 H35           -2.2987    -5.4616    -7.3585 H       
  36 H36           -2.6865    -5.1239    -5.6544 H       
  37 H37           -4.1353    -7.0750    -7.4568 H       
  38 H38           -4.5232    -6.7373    -5.7527 H       
  39 H39           -6.5306    -7.5684    -6.8810 H       
  40 H40           -6.7547    -5.8470    -6.4874 H       
  41 H41           -8.1520    -7.3632    -8.7017 H       
  42 H42           -8.3762    -5.6418    -8.3081 H       
  43 H43           -8.9510    -6.0067   -10.6596 H       
  44 H44           -7.4501    -5.0542   -10.5685 H       
  45 H45           -7.2513    -6.8852   -12.0896 H       
@<TRIPOS>BOND
   1    1    2 1
   2    1   20 1
   3    2    3 1
   4    2   21 1
   5    2   22 1
   6    3    4 1
   7    3   23 1
   8    3   24 1
   9    4    5 1
  10    5    6 1
  11    5   25 1
  12    5   26 1
  13    6    7 1
  14    6   27 1
  15    6   28 1
  16    7    8 1
  17    8    9 1
  18    8   29 1
  19    8   30 1
  20    9   10 1
  21    9   31 1
  22    9   32 1
  23   10   11 1
  24   11   12 1
  25   11   33 1
  26   11   34 1
  27   12   13 1
  28   12   35 1
  29   12   36 1
  30   13   14 1
  31   14   15 1
  32   14   37 1
  33   14   38 1
  34   15   16 1
  35   15   39 1
  36   15   40 1
  37   16   17 1
  38   17   18 1
  39   17   41 1
  40   17   42 1
  41   18   19 1
  42   18   43 1
  43   18   44 1
  44   19   45 1

#	End of record

