#	Name: ASD01910039
#	Creating user name:	WinNT
#	Creation time:	15. 06. 2019 19:55

#	Modifying user name:	WinNT
#	Modification time:	15. 06. 2019 19:55

#	Program:	/corina/corina34_cracker 3.40 0067  02.08.2006

@<TRIPOS>MOLECULE
ASD01910039
  49   52    0    0    0
SMALL
NO_CHARGES


@<TRIPOS>ATOM
   1 C1            -0.0167     1.3769     0.0096 C.ar    
   2 C2             0.0021    -0.0041     0.0020 C.ar    
   3 C3             1.2080    -0.6806    -0.0131 C.ar    
   4 C4             2.3987     0.0227    -0.0207 C.ar    
   5 C5             2.3866     1.4038    -0.0132 C.ar    
   6 C6             1.1772     2.0861     0.0020 C.ar    
   7 N7             1.1616     3.4868     0.0092 N.pl3   
   8 C8             0.2441     4.2805    -0.6099 C.2     
   9 C9             0.5820     5.5732    -0.3610 C.2     
  10 C10            1.7427     5.5691     0.4353 C.2     
  11 N11            2.0834     4.3171     0.6594 N.2     
  12 N12           -0.8445     3.8455    -1.3634 N.am    
  13 C13           -1.6785     4.7439    -1.9236 C.2     
  14 C14           -2.8331     4.2825    -2.7228 C.ar    
  15 C15           -3.6986     5.2103    -3.3043 C.ar    
  16 C16           -4.7745     4.7729    -4.0491 C.ar    
  17 C17           -4.9964     3.4181    -4.2200 C.ar    
  18 C18           -4.1421     2.4930    -3.6461 C.ar    
  19 C19           -3.0594     2.9168    -2.9040 C.ar    
  20 C20            2.4556     6.7685     0.9402 C.ar    
  21 C21            3.5993     6.6242     1.7230 C.ar    
  22 C22            4.2585     7.7433     2.1900 C.ar    
  23 C23            3.7857     9.0063     1.8823 C.ar    
  24 C24            2.6506     9.1553     1.1060 C.ar    
  25 C25            1.9871     8.0433     0.6285 C.ar    
  26 O26           -1.4810     5.9338    -1.7716 O.2     
  27 C27           -5.7104     5.7731    -4.6773 C.3     
  28 C28           -6.1739     2.9477    -5.0343 C.3     
  29 H29           -0.9589     1.9047     0.0169 H       
  30 H30           -0.9261    -0.5562     0.0083 H       
  31 H31            1.2201    -1.7605    -0.0187 H       
  32 H32            3.3389    -0.5085    -0.0322 H       
  33 H33            3.3168     1.9525    -0.0188 H       
  34 H34            0.0542     6.4476    -0.7120 H       
  35 H35           -1.0021     2.8961    -1.4846 H       
  36 H36           -3.5267     6.2682    -3.1713 H       
  37 H37           -4.3211     1.4368    -3.7831 H       
  38 H38           -2.3934     2.1938    -2.4567 H       
  39 H39            3.9691     5.6386     1.9642 H       
  40 H40            5.1448     7.6327     2.7971 H       
  41 H41            4.3046     9.8793     2.2498 H       
  42 H42            2.2854    10.1438     0.8694 H       
  43 H43            1.1009     8.1608     0.0225 H       
  44 H44           -5.3545     6.0263    -5.6760 H       
  45 H45           -6.7095     5.3426    -4.7459 H       
  46 H46           -5.7442     6.6739    -4.0644 H       
  47 H47           -5.8765     2.8460    -6.0780 H       
  48 H48           -6.5139     1.9830    -4.6578 H       
  49 H49           -6.9830     3.6739    -4.9562 H       
@<TRIPOS>BOND
   1    1    2 ar
   2    1    6 ar
   3    1   29 1
   4    2    3 ar
   5    2   30 1
   6    3    4 ar
   7    3   31 1
   8    4    5 ar
   9    4   32 1
  10    5    6 ar
  11    5   33 1
  12    6    7 1
  13    7    8 1
  14    7   11 1
  15    8    9 2
  16    8   12 1
  17    9   10 1
  18    9   34 1
  19   10   11 2
  20   10   20 1
  21   12   13 am
  22   12   35 1
  23   13   14 1
  24   13   26 2
  25   14   15 ar
  26   14   19 ar
  27   15   16 ar
  28   15   36 1
  29   16   17 ar
  30   16   27 1
  31   17   18 ar
  32   17   28 1
  33   18   19 ar
  34   18   37 1
  35   19   38 1
  36   20   21 ar
  37   20   25 ar
  38   21   22 ar
  39   21   39 1
  40   22   23 ar
  41   22   40 1
  42   23   24 ar
  43   23   41 1
  44   24   25 ar
  45   24   42 1
  46   25   43 1
  47   27   44 1
  48   27   45 1
  49   27   46 1
  50   28   47 1
  51   28   48 1
  52   28   49 1

#	End of record

