#	Name: ASD01151009
#	Creating user name:	WinNT
#	Creation time:	15. 06. 2019 19:05

#	Modifying user name:	WinNT
#	Modification time:	15. 06. 2019 19:05

#	Program:	/corina/corina34_cracker 3.40 0067  02.08.2006

@<TRIPOS>MOLECULE
ASD01151009
  33   33    0    0    0
SMALL
NO_CHARGES


@<TRIPOS>ATOM
   1 C1            -0.0176     1.5027     0.0185 C.3     
   2 C2             0.0021    -0.0041     0.0020 C.2     
   3 C3            -0.2310     1.9869     1.4296 C.ar    
   4 N4            -1.1608    -0.7000     0.1046 N.pl3   
   5 N5             1.1395    -0.6428    -0.1111 N.2     
   6 C6            -1.1417    -2.1648     0.0885 C.3     
   7 C7            -2.5711    -2.6949     0.2177 C.3     
   8 C8             2.2861     0.0477    -0.3223 C.1     
   9 N9             3.2474     0.6265    -0.4994 N.1     
  10 C10           -3.3797    -2.2872    -1.0155 C.3     
  11 C11           -2.5413    -4.2208     0.3263 C.3     
  12 C12            0.8554     2.2225     2.2513 C.ar    
  13 C13            0.6596     2.6665     3.5456 C.ar    
  14 C14           -0.6226     2.8755     4.0181 C.ar    
  15 C15           -1.7090     2.6407     3.1962 C.ar    
  16 C16           -1.5130     2.2008     1.9004 C.ar    
  17 H17            0.9329     1.8826    -0.3561 H       
  18 H18           -0.8279     1.8625    -0.6155 H       
  19 H19           -2.0034    -0.2269     0.1884 H       
  20 H20           -0.7087    -2.5123    -0.8495 H       
  21 H21           -0.5422    -2.5295     0.9226 H       
  22 H22           -3.0346    -2.2761     1.1109 H       
  23 H23           -4.3981    -2.6648    -0.9234 H       
  24 H24           -3.4010    -1.2001    -1.0929 H       
  25 H25           -2.9162    -2.7060    -1.9087 H       
  26 H26           -1.9652    -4.5113     1.2049 H       
  27 H27           -3.5596    -4.5985     0.4184 H       
  28 H28           -2.0778    -4.6396    -0.5669 H       
  29 H29            1.8571     2.0593     1.8821 H       
  30 H30            1.5083     2.8499     4.1878 H       
  31 H31           -0.7756     3.2217     5.0296 H       
  32 H32           -2.7107     2.8036     3.5654 H       
  33 H33           -2.3617     2.0174     1.2582 H       
@<TRIPOS>BOND
   1    1    2 1
   2    1    3 1
   3    1   17 1
   4    1   18 1
   5    2    4 1
   6    2    5 2
   7    3   12 ar
   8    3   16 ar
   9    4    6 1
  10    4   19 1
  11    5    8 1
  12    6    7 1
  13    6   20 1
  14    6   21 1
  15    7   10 1
  16    7   11 1
  17    7   22 1
  18    8    9 3
  19   10   23 1
  20   10   24 1
  21   10   25 1
  22   11   26 1
  23   11   27 1
  24   11   28 1
  25   12   13 ar
  26   12   29 1
  27   13   14 ar
  28   13   30 1
  29   14   15 ar
  30   14   31 1
  31   15   16 ar
  32   15   32 1
  33   16   33 1

#	End of record

