#	Name: ASD01816853
#	Creating user name:	WinNT
#	Creation time:	15. 06. 2019 19:36

#	Modifying user name:	WinNT
#	Modification time:	15. 06. 2019 19:36

#	Program:	/corina/corina34_cracker 3.40 0067  02.08.2006

@<TRIPOS>MOLECULE
ASD01816853
  58   62    0    0    0
SMALL
NO_CHARGES


@<TRIPOS>ATOM
   1 C1            -0.0168     1.3889     0.0097 C.ar    
   2 C2             0.0021    -0.0041     0.0020 C.ar    
   3 C3             1.1794    -0.6886    -0.0124 C.ar    
   4 C4             2.3934     0.0157    -0.0201 C.ar    
   5 C5             2.3803     1.4351    -0.0129 C.ar    
   6 C6             1.1408     2.1077     0.0025 C.ar    
   7 C7             3.6293    -0.6585    -0.0345 C.ar    
   8 C8             4.7719     0.0878    -0.0410 C.ar    
   9 C9             4.6903     1.4886    -0.0333 C.ar    
  10 N10            3.5280     2.1114    -0.0194 N.ar    
  11 C11            5.9395     2.2867    -0.0401 C.2     
  12 N12            5.8790     3.6331    -0.0329 N.am    
  13 O13            7.0180     1.7271    -0.0521 O.2     
  14 C14            7.1135     4.4219    -0.0395 C.3     
  15 C15            6.8462     5.7972     0.5797 C.3     
  16 O16            6.4661     5.6390     1.9481 O.3     
  17 C17            3.6889    -2.1643    -0.0420 C.3     
  18 C18            3.5722    -2.6646    -1.4587 C.ar    
  19 C19            4.7049    -2.8486    -2.2292 C.ar    
  20 C20            2.3267    -2.9503    -2.0004 C.ar    
  21 C21            2.2626    -3.4075    -3.3049 C.ar    
  22 C22            3.4444    -3.5645    -4.0261 C.ar    
  23 N23            4.6160    -3.2851    -3.4695 N.ar    
  24 C24            8.1203     6.6418     0.4969 C.3     
  25 O25            8.5306     6.7501    -0.8677 O.3     
  26 C26            8.8399     5.4989    -1.4849 C.3     
  27 C27            7.5947     4.6083    -1.4818 C.3     
  28 F28            1.1014     3.4581     0.0097 F       
  29 C29            3.3927    -4.0541    -5.4253 C.2     
  30 C30            2.2280    -4.3018    -6.1787 C.2     
  31 C31            4.4651    -4.3413    -6.2200 C.2     
  32 N32            3.9906    -4.7537    -7.4114 N.pl3   
  33 N33            2.5918    -4.7205    -7.3615 N.2     
  34 C34            4.7991    -5.1627    -8.5626 C.3     
  35 H35           -0.9642     1.9075     0.0169 H       
  36 H36           -0.9303    -0.5490     0.0080 H       
  37 H37            1.1789    -1.7686    -0.0175 H       
  38 H38            5.7362    -0.3984    -0.0517 H       
  39 H39            5.0180     4.0798    -0.0233 H       
  40 H40            7.8797     3.9047     0.5379 H       
  41 H41            6.0434     6.2927     0.0336 H       
  42 H42            6.2813     6.4717     2.4037 H       
  43 H43            4.6379    -2.4925     0.3822 H       
  44 H44            2.8676    -2.5634     0.5531 H       
  45 H45            5.6759    -2.6314    -1.8091 H       
  46 H46            1.4276    -2.8191    -1.4166 H       
  47 H47            1.3099    -3.6397    -3.7575 H       
  48 H48            7.9238     7.6364     0.8974 H       
  49 H49            8.9105     6.1656     1.0774 H       
  50 H50            9.1618     5.6700    -2.5122 H       
  51 H51            9.6395     5.0077    -0.9303 H       
  52 H52            7.8401     3.6374    -1.9122 H       
  53 H53            6.8078     5.0803    -2.0702 H       
  54 H54            1.2119    -4.1690    -5.8378 H       
  55 H55            5.5054    -4.2536    -5.9435 H       
  56 H56            4.9916    -6.2342    -8.5091 H       
  57 H57            4.2615    -4.9356    -9.4832 H       
  58 H58            5.7458    -4.6225    -8.5520 H       
@<TRIPOS>BOND
   1    1    2 ar
   2    1    6 ar
   3    1   35 1
   4    2    3 ar
   5    2   36 1
   6    3    4 ar
   7    3   37 1
   8    4    5 ar
   9    4    7 ar
  10    5    6 ar
  11    5   10 ar
  12    6   28 1
  13    7    8 ar
  14    7   17 1
  15    8    9 ar
  16    8   38 1
  17    9   10 ar
  18    9   11 1
  19   11   12 am
  20   11   13 2
  21   12   14 1
  22   12   39 1
  23   14   15 1
  24   14   27 1
  25   14   40 1
  26   15   16 1
  27   15   24 1
  28   15   41 1
  29   16   42 1
  30   17   18 1
  31   17   43 1
  32   17   44 1
  33   18   19 ar
  34   18   20 ar
  35   19   23 ar
  36   19   45 1
  37   20   21 ar
  38   20   46 1
  39   21   22 ar
  40   21   47 1
  41   22   23 ar
  42   22   29 1
  43   24   25 1
  44   24   48 1
  45   24   49 1
  46   25   26 1
  47   26   27 1
  48   26   50 1
  49   26   51 1
  50   27   52 1
  51   27   53 1
  52   29   30 1
  53   29   31 2
  54   30   33 2
  55   30   54 1
  56   31   32 1
  57   31   55 1
  58   32   33 1
  59   32   34 1
  60   34   56 1
  61   34   57 1
  62   34   58 1

#	End of record

