#	Name: ASD01900250
#	Creating user name:	WinNT
#	Creation time:	15. 06. 2019 19:51

#	Modifying user name:	WinNT
#	Modification time:	15. 06. 2019 19:51

#	Program:	/corina/corina34_cracker 3.40 0067  02.08.2006

@<TRIPOS>MOLECULE
ASD01900250
  36   38    0    0    0
SMALL
NO_CHARGES


@<TRIPOS>ATOM
   1 S1            -0.0218     1.7567     0.0117 S.3     
   2 C2             0.0021    -0.0041     0.0020 C.2     
   3 N3             1.2428    -0.4104    -0.0120 N.2     
   4 C4             2.1514     0.5294    -0.0156 C.2     
   5 C5             1.6885     1.7891    -0.0045 C.2     
   6 C6            -1.1841    -0.8761     0.0091 C.2     
   7 O7            -2.2982    -0.3876     0.0228 O.2     
   8 N8            -1.0357    -2.2157     0.0004 N.am    
   9 N9            -3.4698    -4.8261     0.0110 N.am    
  10 C10           -2.1694    -4.4021    -0.0001 C.2     
  11 C11           -2.1688    -3.0487     0.0072 C.2     
  12 C12           -3.5172    -2.6279     0.0233 C.2     
  13 C13           -4.2867    -3.7350     0.0253 C.2     
  14 S14           -3.9694    -6.4049     0.0015 S.o2    
  15 O15           -5.2614    -6.3601    -0.5882 O.2     
  16 O16           -2.9029    -7.1062    -0.6231 O.2     
  17 C17           -4.0854    -6.8536     1.7553 C.3     
  18 C18           -4.5368    -8.2861     1.8786 C.ar    
  19 C19           -3.6017    -9.3053     1.9184 C.ar    
  20 C20           -4.0168   -10.6200     2.0320 C.ar    
  21 C21           -5.3653   -10.9148     2.1058 C.ar    
  22 C22           -6.2989    -9.8963     2.0656 C.ar    
  23 C23           -5.8844    -8.5817     1.9578 C.ar    
  24 Cl24          -1.9084    -8.9343     1.8250 Cl      
  25 H25            3.2081     0.3062    -0.0266 H       
  26 H26            2.2982     2.6806    -0.0060 H       
  27 H27           -0.1475    -2.6052    -0.0105 H       
  28 H28           -1.2955    -5.0366    -0.0121 H       
  29 H29           -3.8676    -1.6064     0.0321 H       
  30 H30           -5.3665    -3.7541     0.0363 H       
  31 H31           -3.1086    -6.7387     2.2251 H       
  32 H32           -4.8054    -6.2019     2.2502 H       
  33 H33           -3.2874   -11.4159     2.0627 H       
  34 H34           -5.6895   -11.9412     2.1946 H       
  35 H35           -7.3524   -10.1272     2.1226 H       
  36 H36           -6.6141    -7.7860     1.9309 H       
@<TRIPOS>BOND
   1    1    2 1
   2    1    5 1
   3    2    3 2
   4    2    6 1
   5    3    4 1
   6    4    5 2
   7    4   25 1
   8    5   26 1
   9    6    7 2
  10    6    8 am
  11    8   11 1
  12    8   27 1
  13    9   10 1
  14    9   13 1
  15    9   14 am
  16   10   11 2
  17   10   28 1
  18   11   12 1
  19   12   13 2
  20   12   29 1
  21   13   30 1
  22   14   15 2
  23   14   16 2
  24   14   17 1
  25   17   18 1
  26   17   31 1
  27   17   32 1
  28   18   19 ar
  29   18   23 ar
  30   19   20 ar
  31   19   24 1
  32   20   21 ar
  33   20   33 1
  34   21   22 ar
  35   21   34 1
  36   22   23 ar
  37   22   35 1
  38   23   36 1

#	End of record

