#	Name: ASD04590212
#	Creating user name:	WinNT
#	Creation time:	15. 06. 2019 20:50

#	Modifying user name:	WinNT
#	Modification time:	15. 06. 2019 20:50

#	Program:	/corina/corina34_cracker 3.40 0067  02.08.2006

@<TRIPOS>MOLECULE
ASD04590212
  36   38    0    0    0
SMALL
NO_CHARGES


@<TRIPOS>ATOM
   1 N1            -0.0145     1.2804     0.0004 N.pl3   
   2 N2             0.0026    -0.0039    -0.0050 N.2     
   3 C3             1.2462    -0.4441    -0.0127 C.2     
   4 C4             2.0912     0.6960    -0.0120 C.2     
   5 C5             1.2533     1.7667    -0.0035 C.2     
   6 C6             1.6769    -1.8545    -0.0199 C.2     
   7 N7             0.7573    -2.8398    -0.0194 N.am    
   8 N8             3.4939     0.7144    -0.0185 N.am    
   9 O9             2.8615    -2.1284    -0.0263 O.2     
  10 C10            4.1524     1.8903    -0.0167 C.2     
  11 C11            5.6275     1.9097    -0.0236 C.ar    
  12 O12            3.5306     2.9354    -0.0094 O.2     
  13 C13            1.1601    -4.1685    -0.1349 C.ar    
  14 C14            2.8599    -5.6955    -0.4568 C.ar    
  15 N15            2.4365    -4.4512    -0.3420 N.ar    
  16 C16            6.3367     1.9139     1.1824 C.ar    
  17 C17            7.7187     1.9316     1.1667 C.ar    
  18 C18            8.4004     1.9451    -0.0366 C.ar    
  19 C19            7.7073     1.9411    -1.2335 C.ar    
  20 C20            6.3253     1.9181    -1.2363 C.ar    
  21 F21            5.6727     1.9011     2.3589 F       
  22 F22            5.6502     1.9142    -2.4065 F       
  23 C23            0.2184    -5.1859    -0.0258 C.ar    
  24 C24            0.6321    -6.5010    -0.1419 C.ar    
  25 C25            1.9789    -6.7546    -0.3642 C.ar    
  26 H26           -0.8175     1.8246     0.0028 H       
  27 H27            1.5416     2.8075    -0.0006 H       
  28 H28           -0.1849    -2.6239     0.0613 H       
  29 H29            3.9899    -0.1192    -0.0244 H       
  30 H30            3.9091    -5.8881    -0.6254 H       
  31 H31            8.2677     1.9352     2.0967 H       
  32 H32            9.4803     1.9593    -0.0417 H       
  33 H33            8.2476     1.9521    -2.1686 H       
  34 H34           -0.8218    -4.9526     0.1477 H       
  35 H35           -0.0766    -7.3119    -0.0612 H       
  36 H36            2.3345    -7.7699    -0.4595 H       
@<TRIPOS>BOND
   1    1    2 1
   2    1    5 1
   3    1   26 1
   4    2    3 2
   5    3    4 1
   6    3    6 1
   7    4    5 2
   8    4    8 1
   9    5   27 1
  10    6    7 am
  11    6    9 2
  12    7   13 1
  13    7   28 1
  14    8   10 am
  15    8   29 1
  16   10   11 1
  17   10   12 2
  18   11   16 ar
  19   11   20 ar
  20   13   23 ar
  21   13   15 ar
  22   14   15 ar
  23   14   25 ar
  24   14   30 1
  25   16   17 ar
  26   16   21 1
  27   17   18 ar
  28   17   31 1
  29   18   19 ar
  30   18   32 1
  31   19   20 ar
  32   19   33 1
  33   20   22 1
  34   23   24 ar
  35   23   34 1
  36   24   25 ar
  37   24   35 1
  38   25   36 1

#	End of record

