#	Name: ASD01510006
#	Creating user name:	WinNT
#	Creation time:	15. 06. 2019 19:21

#	Modifying user name:	WinNT
#	Modification time:	15. 06. 2019 19:21

#	Program:	/corina/corina34_cracker 3.40 0067  02.08.2006

@<TRIPOS>MOLECULE
ASD01510006
 134  138    0    0    0
SMALL
NO_CHARGES


@<TRIPOS>ATOM
   1 C1             2.9292    -2.5816    -0.6857 C.3     
   2 C2             1.6603    -3.3023    -1.1455 C.3     
   3 C3             0.4683    -2.8123    -0.3209 C.3     
   4 C4            -0.8006    -3.5330    -0.7807 C.3     
   5 C5            -1.9926    -3.0429     0.0438 C.3     
   6 C6            -3.2615    -3.7637    -0.4159 C.3     
   7 N7            -4.4259    -3.1760     0.2513 N.am    
   8 C8            -5.2620    -2.2032    -0.4564 C.3     
   9 C9            -5.6969    -1.1239     0.5013 C.ar    
  10 C10           -4.7646    -0.5202     1.3291 C.ar    
  11 C11           -5.1504     0.4703     2.2106 C.ar    
  12 C12           -6.4775     0.8674     2.2728 C.ar    
  13 C13           -7.4245     0.2589     1.4365 C.ar    
  14 C14           -7.0191    -0.7381     0.5453 C.ar    
  15 C15           -8.8383     0.6721     1.4936 C.2     
  16 O16           -9.1861     1.5423     2.2670 O.2     
  17 O17           -9.7449     0.0847     0.6882 O.3     
  18 C18          -11.1187     0.5416     0.7985 C.3     
  19 O19           -6.8580     1.8396     3.1388 O.3     
  20 C20           -5.8381     2.4130     3.9592 C.3     
  21 C21           -6.4436     3.4670     4.8500 C.2     
  22 O22           -7.6270     3.7029     4.7886 O.2     
  23 O23           -5.6681     4.1438     5.7117 O.3     
  24 C24           -6.3190     5.1443     6.5385 C.3     
  25 C25           -4.4725    -1.5873    -1.5825 C.2     
  26 O26           -3.2657    -1.4990    -1.4997 O.2     
  27 N27           -5.1074    -1.1345    -2.6818 N.am    
  28 C28           -4.3398    -0.5358    -3.7766 C.3     
  29 C29           -5.2936    -0.1082    -4.8939 C.3     
  30 C30           -4.4920     0.5171    -6.0373 C.3     
  31 C31           -5.4458     0.9447    -7.1546 C.3     
  32 C32           -4.7278    -3.5303     1.5161 C.2     
  33 O33           -5.6917    -3.0438     2.0684 O.2     
  34 C34           -3.8677    -4.5310     2.2440 C.3     
  35 C35           -4.4251    -4.7545     3.6512 C.3     
  36 C36           -3.5519    -5.7705     4.3902 C.3     
  37 C37           -4.1093    -5.9940     5.7974 C.3     
  38 C38           -3.2360    -7.0100     6.5365 C.3     
  39 N39           -3.7698    -7.2240     7.8839 N.am    
  40 C40           -4.6763    -8.1939     8.0578 C.2     
  41 O41           -5.0203    -8.8561     7.0982 O.2     
  42 N42           -5.2195    -8.4604     9.2620 N.am    
  43 C43           -4.7944    -7.6517    10.4170 C.3     
  44 C44           -3.7662    -6.5697    10.1564 C.2     
  45 C45           -3.3107    -6.4268     8.8931 C.2     
  46 C46           -2.2870    -5.3631     8.5901 C.3     
  47 C47           -3.2954    -5.7411    11.2017 C.2     
  48 O48           -2.4436    -4.9020    10.9762 O.2     
  49 O49           -3.7909    -5.8813    12.4490 O.3     
  50 C50           -3.2699    -5.0111    13.4557 C.3     
  51 C51           -3.9363    -5.3117    14.7735 C.ar    
  52 C52           -3.3873    -6.2499    15.6275 C.ar    
  53 C53           -3.9986    -6.5257    16.8362 C.ar    
  54 C54           -5.1586    -5.8628    17.1913 C.ar    
  55 C55           -5.7070    -4.9240    16.3377 C.ar    
  56 C56           -5.0934    -4.6451    15.1308 C.ar    
  57 C57           -6.0194    -6.9973    11.0020 C.ar    
  58 C58           -6.1620    -6.9045    12.3747 C.ar    
  59 C59           -7.2818    -6.3061    12.9159 C.ar    
  60 C60           -8.2697    -5.7950    12.0766 C.ar    
  61 C61           -8.1209    -5.8912    10.6946 C.ar    
  62 C62           -6.9943    -6.4865    10.1642 C.ar    
  63 C63           -9.4761    -5.1509    12.6526 C.ar    
  64 C64          -10.4640    -4.6398    11.8134 C.ar    
  65 C65          -11.5841    -4.0418    12.3546 C.ar    
  66 C66          -11.7266    -3.9490    13.7273 C.ar    
  67 C67          -10.7488    -4.4542    14.5650 C.ar    
  68 C68           -9.6279    -5.0602    14.0348 C.ar    
  69 H69            3.7784    -2.9307    -1.2731 H       
  70 H70            2.8078    -1.5074    -0.8254 H       
  71 H71            3.1054    -2.7932     0.3689 H       
  72 H72            1.4842    -3.0907    -2.2001 H       
  73 H73            1.7817    -4.3765    -1.0058 H       
  74 H74            0.6445    -3.0239     0.7337 H       
  75 H75            0.3469    -1.7381    -0.4606 H       
  76 H76           -0.9768    -3.3214    -1.8353 H       
  77 H77           -0.6792    -4.6071    -0.6410 H       
  78 H78           -1.8165    -3.2546     1.0985 H       
  79 H79           -2.1140    -1.9688    -0.0959 H       
  80 H80           -3.3691    -3.6570    -1.4954 H       
  81 H81           -3.1916    -4.8210    -0.1605 H       
  82 H82           -6.1407    -2.7055    -0.8609 H       
  83 H83           -3.7299    -0.8264     1.2851 H       
  84 H84           -4.4175     0.9361     2.8528 H       
  85 H85           -7.7424    -1.2115    -0.1021 H       
  86 H86          -11.7431    -0.0116     0.0970 H       
  87 H87          -11.4770     0.3738     1.8142 H       
  88 H88          -11.1674     1.6057     0.5673 H       
  89 H89           -5.3853     1.6346     4.5733 H       
  90 H90           -5.0751     2.8666     3.3266 H       
  91 H91           -6.7772     5.9004     5.9009 H       
  92 H92           -7.0875     4.6684     7.1476 H       
  93 H93           -5.5809     5.6154     7.1876 H       
  94 H94           -6.0725    -1.2051    -2.7481 H       
  95 H95           -3.7992     0.3356    -3.4072 H       
  96 H96           -3.6300    -1.2663    -4.1646 H       
  97 H97           -5.8343    -0.9796    -5.2633 H       
  98 H98           -6.0035     0.6223    -4.5059 H       
  99 H99           -3.9514     1.3885    -5.6678 H       
 100 H100          -3.7822    -0.2134    -6.4253 H       
 101 H101          -4.8748     1.3902    -7.9691 H       
 102 H102          -5.9865     0.0733    -7.5240 H       
 103 H103          -6.1557     1.6752    -6.7666 H       
 104 H104          -3.8680    -5.4749     1.6989 H       
 105 H105          -2.8482    -4.1516     2.3131 H       
 106 H106          -4.4248    -3.8106     4.1963 H       
 107 H107          -5.4446    -5.1339     3.5822 H       
 108 H108          -3.5522    -6.7144     3.8452 H       
 109 H109          -2.5324    -5.3911     4.4593 H       
 110 H110          -4.1090    -5.0501     6.3425 H       
 111 H111          -5.1288    -6.3734     5.7284 H       
 112 H112          -3.2363    -7.9539     5.9914 H       
 113 H113          -2.2165    -6.6306     6.6055 H       
 114 H114          -5.8752    -9.1677     9.3655 H       
 115 H115          -4.3876    -8.3278    11.1690 H       
 116 H116          -1.2918    -5.7380     8.8291 H       
 117 H117          -2.3336    -5.1048     7.5322 H       
 118 H118          -2.4952    -4.4771     9.1900 H       
 119 H119          -2.1949    -5.1655    13.5485 H       
 120 H120          -3.4655    -3.9755    13.1775 H       
 121 H121          -2.4811    -6.7677    15.3501 H       
 122 H122          -3.5701    -7.2592    17.5031 H       
 123 H123          -5.6365    -6.0788    18.1354 H       
 124 H124          -6.6135    -4.4064    16.6149 H       
 125 H125          -5.5218    -3.9115    14.4639 H       
 126 H126          -5.3958    -7.3013    13.0243 H       
 127 H127          -7.3923    -6.2345    13.9878 H       
 128 H128          -8.8836    -5.4966    10.0395 H       
 129 H129          -6.8779    -6.5617     9.0931 H       
 130 H130         -10.3534    -4.7112    10.7415 H       
 131 H131         -12.3504    -3.6453    11.7050 H       
 132 H132         -12.6045    -3.4799    14.1465 H       
 133 H133         -10.8650    -4.3788    15.6361 H       
 134 H134          -8.8651    -5.4547    14.6898 H       
@<TRIPOS>BOND
   1    1    2 1
   2    1   69 1
   3    1   70 1
   4    1   71 1
   5    2    3 1
   6    2   72 1
   7    2   73 1
   8    3    4 1
   9    3   74 1
  10    3   75 1
  11    4    5 1
  12    4   76 1
  13    4   77 1
  14    5    6 1
  15    5   78 1
  16    5   79 1
  17    6    7 1
  18    6   80 1
  19    6   81 1
  20    7    8 1
  21    7   32 am
  22    8    9 1
  23    8   25 1
  24    8   82 1
  25    9   10 ar
  26    9   14 ar
  27   10   11 ar
  28   10   83 1
  29   11   12 ar
  30   11   84 1
  31   12   13 ar
  32   12   19 1
  33   13   14 ar
  34   13   15 1
  35   14   85 1
  36   15   16 2
  37   15   17 1
  38   17   18 1
  39   18   86 1
  40   18   87 1
  41   18   88 1
  42   19   20 1
  43   20   21 1
  44   20   89 1
  45   20   90 1
  46   21   22 2
  47   21   23 1
  48   23   24 1
  49   24   91 1
  50   24   92 1
  51   24   93 1
  52   25   26 2
  53   25   27 am
  54   27   28 1
  55   27   94 1
  56   28   29 1
  57   28   95 1
  58   28   96 1
  59   29   30 1
  60   29   97 1
  61   29   98 1
  62   30   31 1
  63   30   99 1
  64   30  100 1
  65   31  101 1
  66   31  102 1
  67   31  103 1
  68   32   33 2
  69   32   34 1
  70   34   35 1
  71   34  104 1
  72   34  105 1
  73   35   36 1
  74   35  106 1
  75   35  107 1
  76   36   37 1
  77   36  108 1
  78   36  109 1
  79   37   38 1
  80   37  110 1
  81   37  111 1
  82   38   39 1
  83   38  112 1
  84   38  113 1
  85   39   40 am
  86   39   45 1
  87   40   41 2
  88   40   42 am
  89   42   43 1
  90   42  114 1
  91   43   44 1
  92   43   57 1
  93   43  115 1
  94   44   45 2
  95   44   47 1
  96   45   46 1
  97   46  116 1
  98   46  117 1
  99   46  118 1
 100   47   48 2
 101   47   49 1
 102   49   50 1
 103   50   51 1
 104   50  119 1
 105   50  120 1
 106   51   52 ar
 107   51   56 ar
 108   52   53 ar
 109   52  121 1
 110   53   54 ar
 111   53  122 1
 112   54   55 ar
 113   54  123 1
 114   55   56 ar
 115   55  124 1
 116   56  125 1
 117   57   58 ar
 118   57   62 ar
 119   58   59 ar
 120   58  126 1
 121   59   60 ar
 122   59  127 1
 123   60   61 ar
 124   60   63 1
 125   61   62 ar
 126   61  128 1
 127   62  129 1
 128   63   64 ar
 129   63   68 ar
 130   64   65 ar
 131   64  130 1
 132   65   66 ar
 133   65  131 1
 134   66   67 ar
 135   66  132 1
 136   67   68 ar
 137   67  133 1
 138   68  134 1

#	End of record

