#	Name: ASD09116056
#	Creating user name:	WinNT
#	Creation time:	15. 06. 2019 21:20

#	Modifying user name:	WinNT
#	Modification time:	15. 06. 2019 21:20

#	Program:	/corina/corina34_cracker 3.40 0067  02.08.2006

@<TRIPOS>MOLECULE
ASD09116056
  65   69    0    0    0
SMALL
NO_CHARGES


@<TRIPOS>ATOM
   1 C1            -0.0668     1.3931    -0.3091 C.ar    
   2 N2            -0.0346     0.0019    -0.2557 N.pl3   
   3 N3            -1.1344    -0.8614    -0.1245 N.2     
   4 C4            -0.6626    -2.0847    -0.1163 C.2     
   5 N5             0.6698    -2.0423    -0.2346 N.2     
   6 C6             1.0676    -0.7916    -0.3260 C.2     
   7 N7             2.3732    -0.3607    -0.4603 N.pl3   
   8 N8            -1.4274    -3.2452    -0.0017 N.pl3   
   9 N9             1.0702     2.0589    -0.4361 N.ar    
  10 N10           -1.2373     2.0149    -0.2368 N.ar    
  11 C11           -1.2893     3.3281    -0.2833 C.ar    
  12 C12           -0.1172     4.0594    -0.4224 C.ar    
  13 C13            1.0835     3.3832    -0.4968 C.ar    
  14 C14           -2.5770     4.0989    -0.1728 C.3     
  15 C15           -3.1208     4.4897    -1.5098 C.3     
  16 C16           -2.5022     5.6796    -2.2168 C.3     
  17 C17           -1.1357     5.2983    -2.8149 C.3     
  18 C18           -0.0356     5.9875    -1.9602 C.3     
  19 C19           -0.2024     5.5575    -0.5037 C.3     
  20 C20           -0.8177    -4.4998    -0.1197 C.ar    
  21 C21           -1.3415    -5.5933     0.5574 C.ar    
  22 C22           -0.7393    -6.8306     0.4404 C.ar    
  23 C23            0.3887    -6.9811    -0.3527 C.ar    
  24 C24            0.9126    -5.8894    -1.0293 C.ar    
  25 C25            0.3081    -4.6528    -0.9184 C.ar    
  26 O26            0.9816    -8.1997    -0.4667 O.3     
  27 C27            2.1395    -8.2824    -1.2999 C.3     
  28 C28            2.6630    -9.7201    -1.3043 C.3     
  29 N29            1.6690   -10.6012    -1.9317 N.3     
  30 C30            2.2291   -11.9442    -2.1701 C.3     
  31 C31            0.4682   -10.7363    -1.0800 C.3     
  32 C32           -0.0264   -12.1845    -1.3202 C.3     
  33 C33            1.3135   -12.9558    -1.4492 C.3     
  34 H34            3.0961    -1.0067    -0.4944 H       
  35 H35            2.5672     0.5878    -0.5205 H       
  36 H36           -2.3818    -3.1831     0.1599 H       
  37 H37            2.0144     3.9215    -0.5979 H       
  38 H38           -3.3143     3.4832     0.3423 H       
  39 H39           -2.4000     5.0003     0.4139 H       
  40 H40           -3.0277     3.6273    -2.1700 H       
  41 H41           -4.1846     4.6935    -1.3878 H       
  42 H42           -3.1661     6.0092    -3.0160 H       
  43 H43           -2.3692     6.4933    -1.5039 H       
  44 H44           -1.0064     4.2166    -2.7806 H       
  45 H45           -1.0740     5.6459    -3.8462 H       
  46 H46            0.9484     5.6865    -2.3196 H       
  47 H47           -0.1390     7.0700    -2.0356 H       
  48 H48           -1.1733     5.8881    -0.1347 H       
  49 H49            0.5891     6.0010     0.1004 H       
  50 H50           -2.2193    -5.4761     1.1755 H       
  51 H51           -1.1466    -7.6811     0.9668 H       
  52 H52            1.7909    -6.0076    -1.6466 H       
  53 H53            0.7159    -3.8029    -1.4456 H       
  54 H54            1.8776    -7.9880    -2.3162 H       
  55 H55            2.9117    -7.6157    -0.9161 H       
  56 H56            3.5954    -9.7655    -1.8671 H       
  57 H57            2.8411   -10.0451    -0.2793 H       
  58 H58            2.2449   -12.1549    -3.2394 H       
  59 H59            3.2387   -12.0024    -1.7634 H       
  60 H60            0.7287   -10.5934    -0.0313 H       
  61 H61           -0.2949   -10.0195    -1.3834 H       
  62 H62           -0.6046   -12.5458    -0.4698 H       
  63 H63           -0.6057   -12.2516    -2.2411 H       
  64 H64            1.1840   -13.8553    -2.0510 H       
  65 H65            1.7120   -13.2032    -0.4653 H       
@<TRIPOS>BOND
   1    1    2 1
   2    1    9 ar
   3    1   10 ar
   4    2    3 1
   5    2    6 1
   6    3    4 2
   7    4    5 1
   8    4    8 1
   9    5    6 2
  10    6    7 1
  11    7   34 1
  12    7   35 1
  13    8   20 1
  14    8   36 1
  15    9   13 ar
  16   10   11 ar
  17   11   12 ar
  18   11   14 1
  19   12   13 ar
  20   12   19 1
  21   13   37 1
  22   14   15 1
  23   14   38 1
  24   14   39 1
  25   15   16 1
  26   15   40 1
  27   15   41 1
  28   16   17 1
  29   16   42 1
  30   16   43 1
  31   17   18 1
  32   17   44 1
  33   17   45 1
  34   18   19 1
  35   18   46 1
  36   18   47 1
  37   19   48 1
  38   19   49 1
  39   20   21 ar
  40   20   25 ar
  41   21   22 ar
  42   21   50 1
  43   22   23 ar
  44   22   51 1
  45   23   24 ar
  46   23   26 1
  47   24   25 ar
  48   24   52 1
  49   25   53 1
  50   26   27 1
  51   27   28 1
  52   27   54 1
  53   27   55 1
  54   28   29 1
  55   28   56 1
  56   28   57 1
  57   29   30 1
  58   29   31 1
  59   30   33 1
  60   30   58 1
  61   30   59 1
  62   31   32 1
  63   31   60 1
  64   31   61 1
  65   32   33 1
  66   32   62 1
  67   32   63 1
  68   33   64 1
  69   33   65 1

#	End of record

