#	Name: ASD01882233
#	Creating user name:	WinNT
#	Creation time:	15. 06. 2019 19:44

#	Modifying user name:	WinNT
#	Modification time:	15. 06. 2019 19:44

#	Program:	/corina/corina34_cracker 3.40 0067  02.08.2006

@<TRIPOS>MOLECULE
ASD01882233
  33   36    0    0    0
SMALL
NO_CHARGES


@<TRIPOS>ATOM
   1 C1            -0.0159     1.3220     0.0093 C.2     
   2 N2             0.0021    -0.0041     0.0020 N.2     
   3 C3             1.1523    -0.6857    -0.0126 C.2     
   4 C4             2.3835     0.0173    -0.0206 C.2     
   5 C5             2.3523     1.3664    -0.0131 C.2     
   6 N6             1.1484     2.0132     0.0019 N.pl3   
   7 O7            -1.0993     2.1290     0.0184 O.3     
   8 C8             0.8540     3.4562     0.0125 C.3     
   9 C9            -0.6831     3.5211     0.0242 C.3     
  10 O10            1.1423    -1.9071    -0.0187 O.2     
  11 C11           -1.1944     4.2379    -1.2270 C.3     
  12 O12           -2.6209     4.3119    -1.1842 O.3     
  13 C13           -5.2533     5.6566    -3.3240 C.ar    
  14 C14           -4.4948     6.1781    -4.3757 C.ar    
  15 C15           -5.3332     6.7901    -5.3949 C.2     
  16 C16           -6.6270     6.7444    -5.1498 C.2     
  17 S17           -6.9626     5.9390    -3.6295 S.3     
  18 C18           -3.0893     6.0572    -4.3289 C.ar    
  19 C19           -2.4829     5.4431    -3.2770 C.ar    
  20 C20           -3.2388     4.9236    -2.2293 C.ar    
  21 C21           -4.6139     5.0333    -2.2484 C.ar    
  22 H22            3.3237    -0.5140    -0.0321 H       
  23 H23            3.2727     1.9314    -0.0185 H       
  24 H24            1.2651     3.9237     0.9072 H       
  25 H25            1.2480     3.9334    -0.8848 H       
  26 H26           -1.0396     4.0220     0.9243 H       
  27 H27           -0.7793     5.2451    -1.2639 H       
  28 H28           -0.8857     3.6850    -2.1142 H       
  29 H29           -4.9261     7.2475    -6.2845 H       
  30 H30           -7.3847     7.1521    -5.8026 H       
  31 H31           -2.4904     6.4551    -5.1347 H       
  32 H32           -1.4065     5.3578    -3.2545 H       
  33 H33           -5.1981     4.6296    -1.4346 H       
@<TRIPOS>BOND
   1    1    2 2
   2    1    6 1
   3    1    7 1
   4    2    3 1
   5    3    4 1
   6    3   10 2
   7    4    5 2
   8    4   22 1
   9    5    6 1
  10    5   23 1
  11    6    8 1
  12    7    9 1
  13    8    9 1
  14    8   24 1
  15    8   25 1
  16    9   11 1
  17    9   26 1
  18   11   12 1
  19   11   27 1
  20   11   28 1
  21   12   20 1
  22   13   14 ar
  23   13   17 1
  24   13   21 ar
  25   14   15 1
  26   14   18 ar
  27   15   16 2
  28   15   29 1
  29   16   17 1
  30   16   30 1
  31   18   19 ar
  32   18   31 1
  33   19   20 ar
  34   19   32 1
  35   20   21 ar
  36   21   33 1

#	End of record

