#	Name: ASD01840085
#	Creating user name:	WinNT
#	Creation time:	15. 06. 2019 19:37

#	Modifying user name:	WinNT
#	Modification time:	15. 06. 2019 19:37

#	Program:	/corina/corina34_cracker 3.40 0067  02.08.2006

@<TRIPOS>MOLECULE
ASD01840085
  57   60    0    0    0
SMALL
NO_CHARGES


@<TRIPOS>ATOM
   1 C1            -0.1508     1.3691     0.7783 C.ar    
   2 C2            -0.1172    -0.0231     0.6973 C.ar    
   3 N3            -1.2109    -0.7137     0.4498 N.ar    
   4 C4            -2.3959    -0.1228     0.2659 C.ar    
   5 C5            -2.5018     1.2700     0.3339 C.ar    
   6 C6            -1.3350     2.0243     0.6045 C.ar    
   7 S7            -3.9698    -0.8330    -0.0731 S.3     
   8 C8            -4.7524     0.7342    -0.1205 C.2     
   9 C9            -3.8608     1.7308     0.1090 C.2     
  10 Cl10           1.3022     2.2611     1.1049 Cl      
  11 O11            1.0585    -0.6747     0.8756 O.3     
  12 C12           -6.1325     0.9339    -0.3659 C.2     
  13 N13           -4.2161     3.0723     0.1276 N.pl3   
  14 N14           -6.9385    -0.1243    -0.5828 N.am    
  15 O15           -6.5914     2.0621    -0.3810 O.2     
  16 C16           -8.3665     0.0824    -0.8366 C.3     
  17 C17           -9.1071    -0.9981    -1.6273 C.3     
  18 C18           -9.3522    -0.8462    -0.1247 C.3     
  19 C19           -1.3974     3.5277     0.6878 C.3     
  20 C20            1.0310    -2.1003     0.7812 C.3     
  21 C21            2.4179    -2.6454     1.0055 C.2     
  22 N22            2.6345    -3.9750     0.9626 N.am    
  23 C23            3.9827    -4.5050     1.1807 C.3     
  24 O24            3.3392    -1.8878     1.2247 O.2     
  25 C25            3.9533    -6.0313     1.0795 C.3     
  26 N26            5.3052    -6.5628     1.2982 N.3     
  27 C27            5.2791    -8.0254     1.4446 C.3     
  28 C28            6.7107    -8.5419     1.6104 C.3     
  29 O29            7.3182    -7.8962     2.7326 O.3     
  30 C30            7.3610    -6.4709     2.6231 C.3     
  31 C31            5.9359    -5.9334     2.4676 C.3     
  32 H32           -3.6612     3.7145     0.5972 H       
  33 H33           -5.0194     3.3677    -0.3290 H       
  34 H34           -6.5731    -1.0228    -0.5707 H       
  35 H35           -8.6715     1.1173    -0.9913 H       
  36 H36           -9.8996    -0.6739    -2.3018 H       
  37 H37           -8.5319    -1.8626    -1.9585 H       
  38 H38           -8.9383    -1.6109     0.5326 H       
  39 H39          -10.3060    -0.4222     0.1893 H       
  40 H40           -1.7118     3.8234     1.6887 H       
  41 H41           -0.4122     3.9444     0.4785 H       
  42 H42           -2.1134     3.9027    -0.0436 H       
  43 H43            0.3562    -2.5015     1.5373 H       
  44 H44            0.6817    -2.3921    -0.2092 H       
  45 H45            1.8976    -4.5810     0.7873 H       
  46 H46            4.6576    -4.1037     0.4246 H       
  47 H47            4.3320    -4.2131     2.1711 H       
  48 H48            3.2784    -6.4326     1.8356 H       
  49 H49            3.6040    -6.3232     0.0891 H       
  50 H50            4.6917    -8.2928     2.3230 H       
  51 H51            4.8315    -8.4721     0.5568 H       
  52 H52            6.6921    -9.6190     1.7763 H       
  53 H53            7.2837    -8.3216     0.7097 H       
  54 H54            7.8127    -6.0502     3.5215 H       
  55 H55            7.9529    -6.1904     1.7518 H       
  56 H56            5.9678    -4.8530     2.3265 H       
  57 H57            5.3590    -6.1674     3.3623 H       
@<TRIPOS>BOND
   1    1    2 ar
   2    1   10 1
   3    1    6 ar
   4    2    3 ar
   5    2   11 1
   6    3    4 ar
   7    4    5 ar
   8    4    7 1
   9    5    6 ar
  10    5    9 1
  11    6   19 1
  12    7    8 1
  13    8    9 2
  14    8   12 1
  15    9   13 1
  16   11   20 1
  17   12   14 am
  18   12   15 2
  19   13   32 1
  20   13   33 1
  21   14   16 1
  22   14   34 1
  23   16   17 1
  24   16   18 1
  25   16   35 1
  26   17   18 1
  27   17   36 1
  28   17   37 1
  29   18   38 1
  30   18   39 1
  31   19   40 1
  32   19   41 1
  33   19   42 1
  34   20   21 1
  35   20   43 1
  36   20   44 1
  37   21   22 am
  38   21   24 2
  39   22   23 1
  40   22   45 1
  41   23   25 1
  42   23   46 1
  43   23   47 1
  44   25   26 1
  45   25   48 1
  46   25   49 1
  47   26   27 1
  48   26   31 1
  49   27   28 1
  50   27   50 1
  51   27   51 1
  52   28   29 1
  53   28   52 1
  54   28   53 1
  55   29   30 1
  56   30   31 1
  57   30   54 1
  58   30   55 1
  59   31   56 1
  60   31   57 1

#	End of record

