#	Name: ASD01911562
#	Creating user name:	WinNT
#	Creation time:	15. 06. 2019 19:58

#	Modifying user name:	WinNT
#	Modification time:	15. 06. 2019 19:58

#	Program:	/corina/corina34_cracker 3.40 0067  02.08.2006

@<TRIPOS>MOLECULE
ASD01911562
  40   42    0    0    0
SMALL
NO_CHARGES


@<TRIPOS>ATOM
   1 N1            -0.0162     1.3436     0.0094 N.am    
   2 C2             0.0021    -0.0041     0.0020 C.2     
   3 C3            -1.2566    -0.7538     0.0100 C.2     
   4 C4            -1.3813    -2.1170     0.0039 C.2     
   5 S5            -2.8763    -0.0590     0.0369 S.3     
   6 C6            -3.5692    -1.6782     0.0304 C.2     
   7 N7            -2.6048    -2.5646     0.0139 N.2     
   8 C8            -4.9692    -1.9790     0.0455 C.1     
   9 C9            -6.1169    -2.2256     0.0579 C.1     
  10 C10           -7.5169    -2.5264     0.0731 C.ar    
  11 C11           -7.9501    -3.8560     0.0660 C.ar    
  12 C12           -9.2997    -4.1376     0.0811 C.ar    
  13 C13          -10.2249    -3.1082     0.1029 C.ar    
  14 C14           -9.8040    -1.7901     0.1101 C.ar    
  15 C15           -8.4574    -1.4924     0.1010 C.ar    
  16 O16            1.0643    -0.5982    -0.0113 O.2     
  17 C17           -9.7687    -5.5697     0.0735 C.3     
  18 C18            1.2424     2.0932     0.0014 C.3     
  19 C19            1.0190     3.4919    -0.5999 C.3     
  20 C20            1.7383     2.3088     1.4462 C.3     
  21 C21            2.3523     3.7307     1.4289 C.3     
  22 C22            1.3869     4.5086     0.5004 C.3     
  23 H23           -0.8627     1.8171     0.0160 H       
  24 H24           -0.5253    -2.7754    -0.0088 H       
  25 H25           -7.2294    -4.6601     0.0482 H       
  26 H26          -11.2807    -3.3351     0.1140 H       
  27 H27          -10.5319    -0.9923     0.1271 H       
  28 H28           -8.1304    -0.4631     0.1066 H       
  29 H29           -9.8682    -5.9249     1.0992 H       
  30 H30          -10.7343    -5.6331    -0.4282 H       
  31 H31           -9.0430    -6.1869    -0.4560 H       
  32 H32            1.9940     1.5544    -0.5756 H       
  33 H33            1.6628     3.6322    -1.4682 H       
  34 H34           -0.0258     3.6129    -0.8858 H       
  35 H35            0.9045     2.2618     2.1467 H       
  36 H36            2.4963     1.5691     1.7038 H       
  37 H37            2.3566     4.1618     2.4300 H       
  38 H38            3.3588     3.7118     1.0110 H       
  39 H39            1.8885     5.3742     0.0678 H       
  40 H40            0.4964     4.8169     1.0482 H       
@<TRIPOS>BOND
   1    1    2 am
   2    1   18 1
   3    1   23 1
   4    2    3 1
   5    2   16 2
   6    3    4 2
   7    3    5 1
   8    4    7 1
   9    4   24 1
  10    5    6 1
  11    6    7 2
  12    6    8 1
  13    8    9 3
  14    9   10 1
  15   10   11 ar
  16   10   15 ar
  17   11   12 ar
  18   11   25 1
  19   12   13 ar
  20   12   17 1
  21   13   14 ar
  22   13   26 1
  23   14   15 ar
  24   14   27 1
  25   15   28 1
  26   17   29 1
  27   17   30 1
  28   17   31 1
  29   18   19 1
  30   18   20 1
  31   18   32 1
  32   19   22 1
  33   19   33 1
  34   19   34 1
  35   20   21 1
  36   20   35 1
  37   20   36 1
  38   21   22 1
  39   21   37 1
  40   21   38 1
  41   22   39 1
  42   22   40 1

#	End of record

