#	Name: ASD01150724
#	Creating user name:	WinNT
#	Creation time:	15. 06. 2019 19:04

#	Modifying user name:	WinNT
#	Modification time:	15. 06. 2019 19:04

#	Program:	/corina/corina34_cracker 3.40 0067  02.08.2006

@<TRIPOS>MOLECULE
ASD01150724
  36   37    0    0    0
SMALL
NO_CHARGES


@<TRIPOS>ATOM
   1 C1            -0.0209     1.2294     0.0373 C.2     
   2 O2            -0.0112     0.0183    -0.0722 O.2     
   3 C3             1.2521     1.9708     0.1575 C.ar    
   4 C4             2.4603     1.2781     0.2602 C.ar    
   5 C5             3.6446     1.9763     0.3716 C.ar    
   6 C6             3.6374     3.3601     0.3816 C.ar    
   7 C7             2.4437     4.0528     0.2801 C.ar    
   8 C8             1.2526     3.3673     0.1629 C.ar    
   9 S9             5.1549     4.2439     0.5248 S.o2    
  10 O10            4.7838     5.4851     1.1086 O.2     
  11 O11            6.0213     3.3451     1.2034 O.2     
  12 C12            5.7019     4.4845    -1.1880 C.3     
  13 C13           -1.3011     1.9580     0.0441 C.ar    
  14 C14           -1.8184     2.4661     1.2472 C.ar    
  15 C15           -3.0262     3.1515     1.2428 C.ar    
  16 C16           -3.7157     3.3324     0.0614 C.ar    
  17 C17           -3.2091     2.8315    -1.1325 C.ar    
  18 C18           -2.0058     2.1529    -1.1479 C.ar    
  19 O19           -3.8978     3.0156    -2.2908 O.3     
  20 C20           -5.1317     3.7313    -2.2052 C.3     
  21 F21           -4.8924     5.0146    -1.7021 F       
  22 F22           -5.7037     3.8286    -3.4782 F       
  23 F23           -6.0069     3.0515    -1.3514 F       
  24 N24           -1.1242     2.2831     2.4377 N.pl3   
  25 H25            2.4673     0.1981     0.2529 H       
  26 H26            4.5797     1.4418     0.4515 H       
  27 H27            2.4452     5.1328     0.2886 H       
  28 H28            0.3222     3.9092     0.0792 H       
  29 H29            4.9493     5.0539    -1.7332 H       
  30 H30            6.6456     5.0299    -1.1948 H       
  31 H31            5.8396     3.5142    -1.6651 H       
  32 H32           -3.4268     3.5435     2.1660 H       
  33 H33           -4.6547     3.8660     0.0642 H       
  34 H34           -1.6125     1.7696    -2.0778 H       
  35 H35           -0.3201     1.7408     2.4519 H       
  36 H36           -1.4440     2.6977     3.2543 H       
@<TRIPOS>BOND
   1    1    2 2
   2    1    3 1
   3    1   13 1
   4    3    4 ar
   5    3    8 ar
   6    4    5 ar
   7    4   25 1
   8    5    6 ar
   9    5   26 1
  10    6    7 ar
  11    6    9 1
  12    7    8 ar
  13    7   27 1
  14    8   28 1
  15    9   10 2
  16    9   11 2
  17    9   12 1
  18   12   29 1
  19   12   30 1
  20   12   31 1
  21   13   14 ar
  22   13   18 ar
  23   14   15 ar
  24   14   24 1
  25   15   16 ar
  26   15   32 1
  27   16   17 ar
  28   16   33 1
  29   17   18 ar
  30   17   19 1
  31   18   34 1
  32   19   20 1
  33   20   21 1
  34   20   22 1
  35   20   23 1
  36   24   35 1
  37   24   36 1

#	End of record

