#	Name: ASD01812850
#	Creating user name:	WinNT
#	Creation time:	15. 06. 2019 19:29

#	Modifying user name:	WinNT
#	Modification time:	15. 06. 2019 19:29

#	Program:	/corina/corina34_cracker 3.40 0067  02.08.2006

@<TRIPOS>MOLECULE
ASD01812850
  51   55    0    0    0
SMALL
NO_CHARGES


@<TRIPOS>ATOM
   1 N1             0.0026     1.3185    -0.2222 N.ar    
   2 C2             0.0318     0.0058    -0.3459 C.ar    
   3 C3             1.2339    -0.6842    -0.3685 C.ar    
   4 C4             2.4113     0.0206    -0.2598 C.ar    
   5 C5             2.3613     1.4133    -0.1297 C.ar    
   6 C6             1.1072     2.0396    -0.1146 C.ar    
   7 C7             3.8681    -0.3578    -0.2443 C.3     
   8 N8             4.6151     0.8978    -0.0991 N.am    
   9 C9             3.7395     1.9165    -0.0335 C.2     
  10 C10            6.0736     1.0207    -0.0356 C.3     
  11 C11            6.6240     1.1964    -1.4274 C.ar    
  12 C12            6.7706     2.4666    -1.9551 C.ar    
  13 C13            7.2742     2.6333    -3.2294 C.ar    
  14 C14            7.6350     1.5193    -3.9843 C.ar    
  15 C15            7.4852     0.2422    -3.4478 C.ar    
  16 C16            6.9859     0.0873    -2.1704 C.ar    
  17 O17            1.0258     3.3856     0.0104 O.3     
  18 O18            4.0442     3.0874     0.0875 O.2     
  19 C19           -0.2010     3.9612    -0.0793 C.ar    
  20 C20           -1.0060     4.0591     1.0515 C.ar    
  21 C21           -2.2525     4.6431     0.9636 C.ar    
  22 C22           -2.7051     5.1367    -0.2630 C.ar    
  23 C23           -1.8923     5.0361    -1.3953 C.ar    
  24 C24           -0.6467     4.4558    -1.2984 C.ar    
  25 C25           -3.9986     5.7434    -0.3593 C.1     
  26 F26           -0.5665     3.5813     2.2363 F       
  27 N27            8.8902     2.5661    -7.2441 N.pl3   
  28 C28            9.2461     3.5611    -8.2588 C.3     
  29 N29           -5.0247     6.2248    -0.4358 N.1     
  30 N30            8.3663     2.8385    -5.9740 N.2     
  31 C31            8.1766     1.6923    -5.3553 C.2     
  32 C32            8.5784     0.6591    -6.2240 C.2     
  33 C33            9.0049     1.2268    -7.3732 C.2     
  34 H34           -0.8959    -0.5405    -0.4307 H       
  35 H35            1.2466    -1.7594    -0.4695 H       
  36 H36            4.0753    -1.0169     0.5988 H       
  37 H37            4.1380    -0.8485    -1.1795 H       
  38 H38            6.3392     1.8858     0.5721 H       
  39 H39            6.4950     0.1200     0.4107 H       
  40 H40            6.4903     3.3294    -1.3692 H       
  41 H41            7.3880     3.6254    -3.6406 H       
  42 H42            7.7630    -0.6247    -4.0289 H       
  43 H43            6.8734    -0.9020    -1.7519 H       
  44 H44           -2.8776     4.7185     1.8410 H       
  45 H45           -2.2391     5.4161    -2.3449 H       
  46 H46           -0.0171     4.3816    -2.1728 H       
  47 H47           10.2871     3.8568    -8.1283 H       
  48 H48            9.1121     3.1316    -9.2516 H       
  49 H49            8.6039     4.4352    -8.1514 H       
  50 H50            8.5472    -0.3992    -6.0108 H       
  51 H51            9.3781     0.7021    -8.2403 H       
@<TRIPOS>BOND
   1    1    2 ar
   2    1    6 ar
   3    2    3 ar
   4    2   34 1
   5    3    4 ar
   6    3   35 1
   7    4    7 1
   8    4    5 ar
   9    5    6 ar
  10    5    9 1
  11    6   17 1
  12    7    8 1
  13    7   36 1
  14    7   37 1
  15    8    9 am
  16    8   10 1
  17    9   18 2
  18   10   11 1
  19   10   38 1
  20   10   39 1
  21   11   12 ar
  22   11   16 ar
  23   12   13 ar
  24   12   40 1
  25   13   14 ar
  26   13   41 1
  27   14   15 ar
  28   14   31 1
  29   15   16 ar
  30   15   42 1
  31   16   43 1
  32   17   19 1
  33   19   20 ar
  34   19   24 ar
  35   20   21 ar
  36   20   26 1
  37   21   22 ar
  38   21   44 1
  39   22   23 ar
  40   22   25 1
  41   23   24 ar
  42   23   45 1
  43   24   46 1
  44   25   29 3
  45   27   28 1
  46   27   30 1
  47   27   33 1
  48   28   47 1
  49   28   48 1
  50   28   49 1
  51   30   31 2
  52   31   32 1
  53   32   33 2
  54   32   50 1
  55   33   51 1

#	End of record

