#	Name: ASD01410319
#	Creating user name:	WinNT
#	Creation time:	15. 06. 2019 19:17

#	Modifying user name:	WinNT
#	Modification time:	15. 06. 2019 19:17

#	Program:	/corina/corina34_cracker 3.40 0067  02.08.2006

@<TRIPOS>MOLECULE
ASD01410319
  67   70    0    0    0
SMALL
NO_CHARGES


@<TRIPOS>ATOM
   1 O1            -0.1311     1.1139    -0.0098 O.3     
   2 C2            -0.1287    -0.2134    -0.1955 C.2     
   3 C3             1.1628    -0.6425    -0.2146 C.2     
   4 C4             1.9840     0.5595    -0.0204 C.2     
   5 C5             1.1218     1.5826     0.0955 C.2     
   6 N6             2.6718    -2.4162    -1.2151 N.pl3   
   7 C7             1.6399    -2.0304    -0.3936 C.2     
   8 C8             1.1276    -3.1233     0.2285 C.2     
   9 C9             1.8577    -4.2536    -0.2097 C.ar    
  10 C10            2.8237    -3.7859    -1.1243 C.ar    
  11 C11            1.7790    -5.6223     0.0867 C.ar    
  12 C12            2.6374    -6.4976    -0.5037 C.ar    
  13 C13            3.6056    -6.0406    -1.4110 C.ar    
  14 C14            3.6927    -4.6836    -1.7218 C.ar    
  15 C15           -1.1473    -4.0061     0.6692 C.3     
  16 C16           -2.3075    -4.0141     1.6665 C.3     
  17 C17           -1.8251    -4.5754     3.0056 C.3     
  18 C18           -0.6930    -3.7003     3.5473 C.3     
  19 C19            0.4672    -3.6924     2.5499 C.3     
  20 C20           -0.0152    -3.1311     1.2108 C.3     
  21 C21            3.4744    -1.5225    -2.0538 C.3     
  22 C22            4.6678    -1.0371    -1.2720 C.2     
  23 O23            4.8318    -1.4018    -0.1270 O.2     
  24 N24            5.5529    -0.1978    -1.8453 N.am    
  25 C25            5.3549     0.2426    -3.2284 C.3     
  26 C26            6.7131     0.2740    -1.0853 C.3     
  27 C27            5.1510     1.7587    -3.2566 C.3     
  28 C28            6.5856    -0.1220    -4.0610 C.3     
  29 C29            6.2363     1.0208     0.1620 C.3     
  30 C30            7.5697    -0.9227    -0.6669 C.3     
  31 C31            4.5293    -6.9989    -2.0430 C.2     
  32 O32            5.3686    -6.6058    -2.8290 O.2     
  33 O33            4.4434    -8.3115    -1.7492 O.3     
  34 H34           -1.0031    -0.8368    -0.3101 H       
  35 H35            3.0620     0.6103     0.0209 H       
  36 H36            1.3932     2.6167     0.2482 H       
  37 H37            1.0368    -5.9817     0.7842 H       
  38 H38            2.5735    -7.5505    -0.2723 H       
  39 H39            4.4382    -4.3338    -2.4206 H       
  40 H40           -0.7837    -5.0238     0.5268 H       
  41 H41           -1.4910    -3.6062    -0.2848 H       
  42 H42           -2.6712    -2.9964     1.8090 H       
  43 H43           -3.1141    -4.6375     1.2807 H       
  44 H44           -2.6517    -4.5810     3.7162 H       
  45 H45           -1.4615    -5.5930     2.8632 H       
  46 H46           -1.0566    -2.6827     3.6897 H       
  47 H47           -0.3493    -4.1002     4.5013 H       
  48 H48            1.2738    -3.0690     2.9358 H       
  49 H49            0.8309    -4.7100     2.4075 H       
  50 H50           -0.3788    -2.1134     1.3533 H       
  51 H51            3.8141    -2.0619    -2.9380 H       
  52 H52            2.8686    -0.6693    -2.3591 H       
  53 H53            4.4759    -0.2499    -3.6442 H       
  54 H54            7.3057     0.9456    -1.7065 H       
  55 H55            5.9947     2.2479    -2.7697 H       
  56 H56            5.0822     2.0969    -4.2905 H       
  57 H57            4.2310     2.0115    -2.7296 H       
  58 H58            6.6909    -1.2063    -4.0981 H       
  59 H59            6.4680     0.2664    -5.0726 H       
  60 H60            7.4747     0.3140    -3.6055 H       
  61 H61            5.7411     0.3224     0.8366 H       
  62 H62            7.0923     1.4685     0.6669 H       
  63 H63            5.5358     1.8036    -0.1288 H       
  64 H64            7.8240    -1.5130    -1.5473 H       
  65 H65            8.4839    -0.5667    -0.1918 H       
  66 H66            7.0117    -1.5408     0.0363 H       
  67 H67            5.0709    -8.9016    -2.1886 H       
@<TRIPOS>BOND
   1    1    2 1
   2    1    5 1
   3    2    3 2
   4    2   34 1
   5    3    4 1
   6    3    7 1
   7    4    5 2
   8    4   35 1
   9    5   36 1
  10    6    7 1
  11    6   21 1
  12    6   10 1
  13    7    8 2
  14    8    9 1
  15    8   20 1
  16    9   10 ar
  17    9   11 ar
  18   10   14 ar
  19   11   12 ar
  20   11   37 1
  21   12   13 ar
  22   12   38 1
  23   13   14 ar
  24   13   31 1
  25   14   39 1
  26   15   16 1
  27   15   20 1
  28   15   40 1
  29   15   41 1
  30   16   17 1
  31   16   42 1
  32   16   43 1
  33   17   18 1
  34   17   44 1
  35   17   45 1
  36   18   19 1
  37   18   46 1
  38   18   47 1
  39   19   20 1
  40   19   48 1
  41   19   49 1
  42   20   50 1
  43   21   22 1
  44   21   51 1
  45   21   52 1
  46   22   23 2
  47   22   24 am
  48   24   25 1
  49   24   26 1
  50   25   27 1
  51   25   28 1
  52   25   53 1
  53   26   29 1
  54   26   30 1
  55   26   54 1
  56   27   55 1
  57   27   56 1
  58   27   57 1
  59   28   58 1
  60   28   59 1
  61   28   60 1
  62   29   61 1
  63   29   62 1
  64   29   63 1
  65   30   64 1
  66   30   65 1
  67   30   66 1
  68   31   32 2
  69   31   33 1
  70   33   67 1

#	End of record

