#	Name: ASD01884690
#	Creating user name:	WinNT
#	Creation time:	15. 06. 2019 19:48

#	Modifying user name:	WinNT
#	Modification time:	15. 06. 2019 19:48

#	Program:	/corina/corina34_cracker 3.40 0067  02.08.2006

@<TRIPOS>MOLECULE
ASD01884690
  56   58    0    0    0
SMALL
NO_CHARGES


@<TRIPOS>ATOM
   1 C1            -0.0168     1.3884     0.0097 C.2     
   2 C2             0.0021    -0.0041     0.0020 C.2     
   3 C3            -1.2095    -0.6965     0.0104 C.2     
   4 C4            -2.3831    -0.0157     0.0252 C.2     
   5 N5            -2.4093     1.3392     0.0327 N.am    
   6 C6            -1.2693     2.0558     0.0312 C.2     
   7 O7            -1.3129     3.2741     0.0383 O.2     
   8 C8            -3.6983     2.0352     0.0483 C.3     
   9 C9             1.2059     2.1337     0.0020 C.1     
  10 N10            2.1759     2.7249    -0.0041 N.1     
  11 C11            1.3105    -0.7515    -0.0155 C.3     
  12 C12           -4.1338     2.2698     1.4962 C.3     
  13 C13           -5.4800     2.9967     1.5124 C.3     
  14 C14           -6.5555     2.0919     0.9078 C.3     
  15 C15           -5.8558     3.3419     2.9548 C.3     
  16 C16            1.7058    -1.1213     1.4155 C.3     
  17 C17            2.9751    -1.9933     1.4110 C.3     
  18 N18            4.0212    -1.2404     2.1365 N.3     
  19 C19            3.2977    -0.3274     3.0579 C.3     
  20 C20            2.0903     0.1473     2.2109 C.3     
  21 C21            4.9033    -2.1491     2.8809 C.3     
  22 C22            6.0909    -1.3816     3.4020 C.ar    
  23 C23            6.0362    -0.7860     4.6483 C.ar    
  24 C24            7.1255    -0.0819     5.1263 C.ar    
  25 C25            8.2697     0.0263     4.3582 C.ar    
  26 C26            8.3247    -0.5700     3.1122 C.ar    
  27 C27            7.2369    -1.2777     2.6361 C.ar    
  28 H28           -1.2130    -1.7765     0.0046 H       
  29 H29           -3.3137    -0.5638     0.0308 H       
  30 H30           -3.5999     2.9937    -0.4613 H       
  31 H31           -4.4456     1.4275    -0.4619 H       
  32 H32            1.2023    -1.6595    -0.6087 H       
  33 H33            2.0835    -0.1207    -0.4544 H       
  34 H34           -4.2323     1.3113     2.0058 H       
  35 H35           -3.3866     2.8775     2.0064 H       
  36 H36           -5.4052     3.9132     0.9272 H       
  37 H37           -6.6304     1.1754     1.4930 H       
  38 H38           -7.5146     2.6098     0.9194 H       
  39 H39           -6.2878     1.8460    -0.1198 H       
  40 H40           -5.0896     3.9865     3.3856 H       
  41 H41           -6.8149     3.8597     2.9664 H       
  42 H42           -5.9307     2.4254     3.5401 H       
  43 H43            0.8881    -1.6461     1.9096 H       
  44 H44            2.7785    -2.9380     1.9180 H       
  45 H45            3.2947    -2.1786     0.3855 H       
  46 H46            2.9587    -0.8643     3.9439 H       
  47 H47            3.9281     0.5171     3.3363 H       
  48 H48            2.3848     0.9511     1.5361 H       
  49 H49            1.2687     0.4634     2.8536 H       
  50 H50            4.3555    -2.5828     3.7175 H       
  51 H51            5.2466    -2.9448     2.2198 H       
  52 H52            5.1423    -0.8706     5.2485 H       
  53 H53            7.0826     0.3839     6.0997 H       
  54 H54            9.1205     0.5770     4.7313 H       
  55 H55            9.2185    -0.4851     2.5119 H       
  56 H56            7.2799    -1.7436     1.6627 H       
@<TRIPOS>BOND
   1    1    2 2
   2    1    9 1
   3    1    6 1
   4    2    3 1
   5    2   11 1
   6    3    4 2
   7    3   28 1
   8    4    5 1
   9    4   29 1
  10    5    8 1
  11    5    6 am
  12    6    7 2
  13    8   12 1
  14    8   30 1
  15    8   31 1
  16    9   10 3
  17   11   16 1
  18   11   32 1
  19   11   33 1
  20   12   13 1
  21   12   34 1
  22   12   35 1
  23   13   14 1
  24   13   15 1
  25   13   36 1
  26   14   37 1
  27   14   38 1
  28   14   39 1
  29   15   40 1
  30   15   41 1
  31   15   42 1
  32   16   17 1
  33   16   20 1
  34   16   43 1
  35   17   18 1
  36   17   44 1
  37   17   45 1
  38   18   19 1
  39   18   21 1
  40   19   20 1
  41   19   46 1
  42   19   47 1
  43   20   48 1
  44   20   49 1
  45   21   22 1
  46   21   50 1
  47   21   51 1
  48   22   23 ar
  49   22   27 ar
  50   23   24 ar
  51   23   52 1
  52   24   25 ar
  53   24   53 1
  54   25   26 ar
  55   25   54 1
  56   26   27 ar
  57   26   55 1
  58   27   56 1

#	End of record

