#	Name: ASD01200403
#	Creating user name:	WinNT
#	Creation time:	15. 06. 2019 19:09

#	Modifying user name:	WinNT
#	Modification time:	15. 06. 2019 19:09

#	Program:	/corina/corina34_cracker 3.40 0067  02.08.2006

@<TRIPOS>MOLECULE
ASD01200403
  64   67    0    0    0
SMALL
NO_CHARGES


@<TRIPOS>ATOM
   1 C1            -0.0167     1.3794     0.0096 C.ar    
   2 C2             0.0021    -0.0041     0.0020 C.ar    
   3 C3            -1.1814    -0.7130     0.0091 C.ar    
   4 C4            -2.3994    -0.0316     0.0243 C.ar    
   5 C5            -2.4113     1.3640     0.0324 C.ar    
   6 C6            -1.2206     2.0609     0.0305 C.ar    
   7 C7            -3.6715    -0.7850     0.0315 C.2     
   8 N8            -4.8460    -0.1241     0.0462 N.am    
   9 O9            -3.6581    -2.0004     0.0240 O.2     
  10 C10           -6.1065    -0.8705     0.0533 C.3     
  11 C11           -7.2803     0.1108     0.0700 C.3     
  12 C12           -8.5770    -0.6571     0.0772 C.2     
  13 O13           -9.7467     0.0011     0.0920 O.3     
  14 O14           -8.5637    -1.8653     0.0698 O.2     
  15 C15            1.2800     2.1473     0.0014 C.3     
  16 C16            1.5776     2.6303    -1.4195 C.3     
  17 N17            1.1696     3.3017     0.8965 N.pl3   
  18 C18            2.9523     3.3011    -1.4527 C.3     
  19 C19            3.2499     3.7841    -2.8736 C.3     
  20 C20            2.3191     3.8549     1.4691 C.ar    
  21 C21            2.2244     4.9530     2.3218 C.ar    
  22 C22            3.3884     5.4671     2.8653 C.ar    
  23 C23            4.6041     4.8759     2.5455 C.ar    
  24 N24            4.6573     3.8339     1.7320 N.ar    
  25 C25            3.5690     3.3136     1.2000 C.ar    
  26 N26            5.7867     5.3890     3.0899 N.pl3   
  27 C27            7.0315     4.9160     2.8664 C.2     
  28 C28            7.9010     5.6912     3.5784 C.2     
  29 C29            7.1425     6.6679     4.2553 C.2     
  30 N30            5.8840     6.4851     3.9555 N.2     
  31 C31            9.3748     5.5340     3.6307 C.ar    
  32 C32           10.1357     6.4065     4.4062 C.ar    
  33 C33           11.5098     6.2474     4.4451 C.ar    
  34 C34           12.0791     5.2197     3.7063 C.ar    
  35 C35           11.2645     4.3905     2.9584 C.ar    
  36 N36            9.9577     4.5604     2.9429 N.ar    
  37 H37            0.9452    -0.5301    -0.0098 H       
  38 H38           -1.1654    -1.7929     0.0024 H       
  39 H39           -3.3504     1.8972     0.0443 H       
  40 H40           -1.2283     3.1409     0.0368 H       
  41 H41           -4.8567     0.8459     0.0522 H       
  42 H42           -6.1656    -1.4924    -0.8400 H       
  43 H43           -6.1492    -1.5031     0.9399 H       
  44 H44           -7.2213     0.7326     0.9632 H       
  45 H45           -7.2376     0.7434    -0.8166 H       
  46 H46          -10.5518    -0.5345     0.0961 H       
  47 H47            2.0880     1.4996     0.3417 H       
  48 H48            1.5719     1.7797    -2.1011 H       
  49 H49            0.8160     3.3471    -1.7266 H       
  50 H50            0.2990     3.6824     1.0920 H       
  51 H51            2.9581     4.1517    -0.7711 H       
  52 H52            3.7139     2.5843    -1.1456 H       
  53 H53            4.2293     4.2620    -2.8972 H       
  54 H54            3.2442     2.9335    -3.5552 H       
  55 H55            2.4884     4.5009    -3.1807 H       
  56 H56            1.2653     5.3926     2.5526 H       
  57 H57            3.3523     6.3177     3.5298 H       
  58 H58            3.6516     2.4627     0.5401 H       
  59 H59            7.2921     4.0767     2.2386 H       
  60 H60            7.5340     7.4362     4.9056 H       
  61 H61            9.6598     7.1961     4.9688 H       
  62 H62           12.1255     6.9085     5.0369 H       
  63 H63           13.1486     5.0694     3.7153 H       
  64 H64           11.7045     3.5901     2.3821 H       
@<TRIPOS>BOND
   1    1    2 ar
   2    1   15 1
   3    1    6 ar
   4    2    3 ar
   5    2   37 1
   6    3    4 ar
   7    3   38 1
   8    4    5 ar
   9    4    7 1
  10    5    6 ar
  11    5   39 1
  12    6   40 1
  13    7    8 am
  14    7    9 2
  15    8   10 1
  16    8   41 1
  17   10   11 1
  18   10   42 1
  19   10   43 1
  20   11   12 1
  21   11   44 1
  22   11   45 1
  23   12   13 1
  24   12   14 2
  25   13   46 1
  26   15   16 1
  27   15   17 1
  28   15   47 1
  29   16   18 1
  30   16   48 1
  31   16   49 1
  32   17   20 1
  33   17   50 1
  34   18   19 1
  35   18   51 1
  36   18   52 1
  37   19   53 1
  38   19   54 1
  39   19   55 1
  40   20   21 ar
  41   20   25 ar
  42   21   22 ar
  43   21   56 1
  44   22   23 ar
  45   22   57 1
  46   23   24 ar
  47   23   26 1
  48   24   25 ar
  49   25   58 1
  50   26   27 1
  51   26   30 1
  52   27   28 2
  53   27   59 1
  54   28   29 1
  55   28   31 1
  56   29   30 2
  57   29   60 1
  58   31   32 ar
  59   31   36 ar
  60   32   33 ar
  61   32   61 1
  62   33   34 ar
  63   33   62 1
  64   34   35 ar
  65   34   63 1
  66   35   36 ar
  67   35   64 1

#	End of record

