#	Name: ASD01814379
#	Creating user name:	WinNT
#	Creation time:	15. 06. 2019 19:32

#	Modifying user name:	WinNT
#	Modification time:	15. 06. 2019 19:32

#	Program:	/corina/corina34_cracker 3.40 0067  02.08.2006

@<TRIPOS>MOLECULE
ASD01814379
  50   55    0    0    0
SMALL
NO_CHARGES


@<TRIPOS>ATOM
   1 C1            -0.0167     1.3819     0.0096 C.ar    
   2 C2             0.0021    -0.0041     0.0020 C.ar    
   3 C3             1.1970    -0.6936    -0.0126 C.ar    
   4 C4             2.3990     0.0034    -0.0203 C.ar    
   5 C5             2.3751     1.4118    -0.0130 C.ar    
   6 C6             1.1661     2.0940     0.0022 C.ar    
   7 N7             3.6102    -0.6577    -0.0345 N.pl3   
   8 N8             4.7455    -0.0611    -0.0412 N.2     
   9 C9             4.8827     1.2395    -0.0359 C.2     
  10 C10            3.6768     2.1037    -0.0217 C.2     
  11 C11            6.0122     2.1720    -0.0413 C.2     
  12 N12            5.4770     3.4117    -0.0307 N.am    
  13 N13            4.0818     3.3389    -0.0192 N.2     
  14 C14            6.2157     4.6017    -0.0311 C.ar    
  15 C15            6.6615     5.1434    -1.2288 C.ar    
  16 C16            7.3896     6.3177    -1.2261 C.ar    
  17 C17            7.6755     6.9539    -0.0325 C.ar    
  18 C18            7.2337     6.4183     1.1637 C.ar    
  19 C19            6.4996     5.2466     1.1685 C.ar    
  20 C20            3.5985    -2.1227    -0.0417 C.3     
  21 C21            3.5818    -2.6178    -1.4650 C.ar    
  22 C22            4.7724    -2.8540    -2.1274 C.ar    
  23 C23            4.7603    -3.3074    -3.4319 C.ar    
  24 C24            3.5511    -3.5265    -4.0781 C.ar    
  25 C25            2.3574    -3.2889    -3.4102 C.ar    
  26 C26            2.3759    -2.8405    -2.1039 C.ar    
  27 N27            3.5356    -3.9863    -5.4023 N.pl3   
  28 C28            2.4336    -4.2390    -6.1441 C.2     
  29 C29            2.8451    -4.6635    -7.3613 C.2     
  30 C30            4.2443    -4.6708    -7.3646 C.2     
  31 N31            4.6590    -4.2594    -6.1934 N.2     
  32 F32            6.0680     4.7232     2.3368 F       
  33 O33            7.1978     1.8862    -0.0527 O.2     
  34 H34           -0.9605     1.9069     0.0169 H       
  35 H35           -0.9294    -0.5505     0.0080 H       
  36 H36            1.1981    -1.7735    -0.0177 H       
  37 H37            1.1510     3.1739     0.0074 H       
  38 H38            6.4396     4.6473    -2.1620 H       
  39 H39            7.7364     6.7390    -2.1581 H       
  40 H40            8.2455     7.8712    -0.0341 H       
  41 H41            7.4591     6.9176     2.0945 H       
  42 H42            4.4902    -2.4956     0.4623 H       
  43 H43            2.7103    -2.4815     0.4783 H       
  44 H44            5.7127    -2.6834    -1.6243 H       
  45 H45            5.6906    -3.4910    -3.9490 H       
  46 H46            1.4152    -3.4581    -3.9103 H       
  47 H47            1.4476    -2.6555    -1.5839 H       
  48 H48            1.4090    -4.1235    -5.8226 H       
  49 H49            2.2064    -4.9467    -8.1848 H       
  50 H50            4.8738    -4.9614    -8.1927 H       
@<TRIPOS>BOND
   1    1    2 ar
   2    1    6 ar
   3    1   34 1
   4    2    3 ar
   5    2   35 1
   6    3    4 ar
   7    3   36 1
   8    4    5 ar
   9    4    7 1
  10    5    6 ar
  11    5   10 1
  12    6   37 1
  13    7    8 1
  14    7   20 1
  15    8    9 2
  16    9   10 1
  17    9   11 1
  18   10   13 2
  19   11   12 am
  20   11   33 2
  21   12   13 1
  22   12   14 1
  23   14   15 ar
  24   14   19 ar
  25   15   16 ar
  26   15   38 1
  27   16   17 ar
  28   16   39 1
  29   17   18 ar
  30   17   40 1
  31   18   19 ar
  32   18   41 1
  33   19   32 1
  34   20   21 1
  35   20   42 1
  36   20   43 1
  37   21   22 ar
  38   21   26 ar
  39   22   23 ar
  40   22   44 1
  41   23   24 ar
  42   23   45 1
  43   24   25 ar
  44   24   27 1
  45   25   26 ar
  46   25   46 1
  47   26   47 1
  48   27   28 1
  49   27   31 1
  50   28   29 2
  51   28   48 1
  52   29   30 1
  53   29   49 1
  54   30   31 2
  55   30   50 1

#	End of record

