#	Name: ASD09116364
#	Creating user name:	WinNT
#	Creation time:	15. 06. 2019 21:21

#	Modifying user name:	WinNT
#	Modification time:	15. 06. 2019 21:21

#	Program:	/corina/corina34_cracker 3.40 0067  02.08.2006

@<TRIPOS>MOLECULE
ASD09116364
  96  104    0    0    0
SMALL
NO_CHARGES


@<TRIPOS>ATOM
   1 N1            -0.1004     1.5785    -0.1580 N.2     
   2 N2            -0.1429     0.2992    -0.7355 N.pl3   
   3 C3             1.1555     1.9566    -0.1574 C.2     
   4 N4             1.9027     0.9886    -0.7009 N.2     
   5 C5             1.1336    -0.0187    -1.0550 C.2     
   6 N6             1.5547    -1.1939    -1.6477 N.pl3   
   7 C7            -1.2771    -0.4888    -0.9397 C.ar    
   8 N8             1.6351     3.1719     0.3312 N.pl3   
   9 C9             3.0136     3.4134     0.3762 C.ar    
  10 C10            3.4960     4.7100     0.2500 C.ar    
  11 C11            3.8978     2.3576     0.5526 C.ar    
  12 C12            5.2582     2.5950     0.5976 C.ar    
  13 C13            5.7418     3.8888     0.4660 C.ar    
  14 C14            4.8566     4.9479     0.2945 C.ar    
  15 N15            7.1217     4.1292     0.5122 N.3     
  16 F16            5.3270     6.2078     0.1659 F       
  17 N17           -1.2824    -1.4072    -1.8942 N.ar    
  18 N18           -2.3034    -2.1520    -2.1296 N.ar    
  19 C19           -3.4190    -2.0423    -1.4263 C.ar    
  20 C20           -3.4981    -1.1143    -0.3840 C.ar    
  21 C21           -2.4045    -0.3126    -0.1335 C.ar    
  22 C22           -4.6153    -2.8613    -1.7305 C.ar    
  23 C23           -5.8518    -2.2270    -1.8602 C.ar    
  24 C24           -5.9286    -0.7294    -1.7439 C.3     
  25 C25           -5.8451    -0.2790    -0.2880 C.3     
  26 C26           -4.7437    -1.0354     0.4499 C.3     
  27 C27            7.6892     3.6931     1.7944 C.3     
  28 C28            9.1623     4.1016     1.8671 C.3     
  29 C29            9.9235     3.4573     0.7051 C.3     
  30 C30            9.2824     3.8892    -0.6166 C.3     
  31 C31            7.8059     3.4869    -0.6173 C.3     
  32 N32           11.3262     3.8926     0.7358 N.3     
  33 C33           -4.5213    -4.2402    -1.8825 C.ar    
  34 C34           -5.6596    -4.9785    -2.1431 C.ar    
  35 C35           -6.8862    -4.3486    -2.2502 C.ar    
  36 C36           -6.9827    -2.9751    -2.1080 C.ar    
  37 C37           12.1230     3.1943    -0.3050 C.3     
  38 C38           13.5852     3.3202     0.1708 C.3     
  39 C39           13.4879     3.5257     1.7066 C.3     
  40 C40           11.9760     3.5047     2.0136 C.3     
  41 C41           14.2841     1.9556    -0.0023 C.3     
  42 N42           15.0468     1.7600     1.2569 N.3     
  43 C43           14.1372     2.2659     2.3163 C.3     
  44 C44           15.3612     0.3405     1.4668 C.3     
  45 C45           16.1290    -0.1961     0.2571 C.3     
  46 C46           16.4565    -1.6746     0.4757 C.3     
  47 C47           17.3151    -1.8263     1.7329 C.3     
  48 C48           16.5474    -1.2897     2.9427 C.3     
  49 C49           16.2199     0.1888     2.7240 C.3     
  50 H50            2.4959    -1.3307    -1.8386 H       
  51 H51            0.9092    -1.8820    -1.8728 H       
  52 H52            1.0136     3.8497     0.6398 H       
  53 H53            2.8079     5.5317     0.1168 H       
  54 H54            3.5220     1.3503     0.6551 H       
  55 H55            5.9452     1.7733     0.7356 H       
  56 H56           -2.4216     0.4289     0.6515 H       
  57 H57           -5.1043    -0.2856    -2.3022 H       
  58 H58           -6.8716    -0.3865    -2.1696 H       
  59 H59           -5.6311     0.7893    -0.2545 H       
  60 H60           -6.8004    -0.4683     0.2016 H       
  61 H61           -5.0898    -2.0445     0.6735 H       
  62 H62           -4.5180    -0.5196     1.3833 H       
  63 H63            7.1416     4.1617     2.6121 H       
  64 H64            7.6084     2.6093     1.8775 H       
  65 H65            9.2429     5.1864     1.7979 H       
  66 H66            9.5874     3.7640     2.8123 H       
  67 H67            9.8758     2.3721     0.7956 H       
  68 H68            9.3649     4.9707    -0.7248 H       
  69 H69            9.7933     3.3999    -1.4459 H       
  70 H70            7.7245     2.4040    -0.5229 H       
  71 H71            7.3430     3.8057    -1.5512 H       
  72 H72           -3.5634    -4.7317    -1.7968 H       
  73 H73           -5.5914    -6.0495    -2.2638 H       
  74 H74           -7.7739    -4.9318    -2.4459 H       
  75 H75           -7.9438    -2.4897    -2.1916 H       
  76 H76           11.8323     2.1456    -0.3658 H       
  77 H77           11.9949     3.6814    -1.2717 H       
  78 H78           14.1149     4.1329    -0.3263 H       
  79 H79           13.9653     4.4489     2.0351 H       
  80 H80           11.7372     4.2258     2.7953 H       
  81 H81           11.6627     2.5038     2.3104 H       
  82 H82           13.5455     1.1636    -0.1259 H       
  83 H83           14.9611     1.9813    -0.8562 H       
  84 H84           14.7033     2.5256     3.2108 H       
  85 H85           13.3759     1.5218     2.5504 H       
  86 H86           14.4359    -0.2225     1.5888 H       
  87 H87           15.5172    -0.0881    -0.6386 H       
  88 H88           17.0544     0.3668     0.1351 H       
  89 H89           15.5311    -2.2375     0.5976 H       
  90 H90           17.0034    -2.0569    -0.3862 H       
  91 H91           17.5484    -2.8796     1.8886 H       
  92 H92           18.2405    -1.2633     1.6109 H       
  93 H93           15.6220    -1.8526     3.0646 H       
  94 H94           17.1591    -1.3977     3.8383 H       
  95 H95           17.1453     0.7517     2.6021 H       
  96 H96           15.6730     0.5711     3.5859 H       
@<TRIPOS>BOND
   1    1    2 1
   2    1    3 2
   3    2    7 1
   4    2    5 1
   5    3    4 1
   6    3    8 1
   7    4    5 2
   8    5    6 1
   9    6   50 1
  10    6   51 1
  11    7   17 ar
  12    7   21 ar
  13    8    9 1
  14    8   52 1
  15    9   10 ar
  16    9   11 ar
  17   10   14 ar
  18   10   53 1
  19   11   12 ar
  20   11   54 1
  21   12   13 ar
  22   12   55 1
  23   13   14 ar
  24   13   15 1
  25   14   16 1
  26   15   27 1
  27   15   31 1
  28   17   18 ar
  29   18   19 ar
  30   19   20 ar
  31   19   22 1
  32   20   21 ar
  33   20   26 1
  34   21   56 1
  35   22   23 ar
  36   22   33 ar
  37   23   24 1
  38   23   36 ar
  39   24   25 1
  40   24   57 1
  41   24   58 1
  42   25   26 1
  43   25   59 1
  44   25   60 1
  45   26   61 1
  46   26   62 1
  47   27   28 1
  48   27   63 1
  49   27   64 1
  50   28   29 1
  51   28   65 1
  52   28   66 1
  53   29   30 1
  54   29   32 1
  55   29   67 1
  56   30   31 1
  57   30   68 1
  58   30   69 1
  59   31   70 1
  60   31   71 1
  61   32   37 1
  62   32   40 1
  63   33   34 ar
  64   33   72 1
  65   34   35 ar
  66   34   73 1
  67   35   36 ar
  68   35   74 1
  69   36   75 1
  70   37   38 1
  71   37   76 1
  72   37   77 1
  73   38   39 1
  74   38   41 1
  75   38   78 1
  76   39   40 1
  77   39   43 1
  78   39   79 1
  79   40   80 1
  80   40   81 1
  81   41   42 1
  82   41   82 1
  83   41   83 1
  84   42   43 1
  85   42   44 1
  86   43   84 1
  87   43   85 1
  88   44   45 1
  89   44   49 1
  90   44   86 1
  91   45   46 1
  92   45   87 1
  93   45   88 1
  94   46   47 1
  95   46   89 1
  96   46   90 1
  97   47   48 1
  98   47   91 1
  99   47   92 1
 100   48   49 1
 101   48   93 1
 102   48   94 1
 103   49   95 1
 104   49   96 1

#	End of record

