#	Name: ASD01140206
#	Creating user name:	WinNT
#	Creation time:	15. 06. 2019 19:00

#	Modifying user name:	WinNT
#	Modification time:	15. 06. 2019 19:00

#	Program:	/corina/corina34_cracker 3.40 0067  02.08.2006

@<TRIPOS>MOLECULE
ASD01140206
  57   60    0    0    0
SMALL
NO_CHARGES


@<TRIPOS>ATOM
   1 C1            -0.8687     1.8448     0.0578 C.3     
   2 C2            -1.0769     0.3292     0.0295 C.3     
   3 C3            -0.5235    -0.2377    -1.2794 C.3     
   4 O4            -1.2084     0.3572    -2.3835 O.3     
   5 C5             0.9711     0.0741    -1.3786 C.3     
   6 C6             1.1798     1.5898    -1.3495 C.3     
   7 C7             2.6747     1.8994    -1.4496 C.3     
   8 C8             2.8883     3.4141    -1.4103 C.3     
   9 C9             2.3413     3.9707    -0.0949 C.3     
  10 C10            2.5045     5.4782    -0.0499 C.3     
  11 C11            3.9475     5.9947    -0.0494 C.3     
  12 C12            3.8117     7.4063     0.5843 C.3     
  13 C13            2.5191     7.3793     1.4377 C.3     
  14 C14            2.8317     7.7279     2.8701 C.2     
  15 O15            3.9385     7.5318     3.3116 O.2     
  16 C16            1.7631     8.3213     3.7516 C.3     
  17 C17            2.0034     5.9472     1.3429 C.3     
  18 C18            2.6452     5.0929     2.4379 C.3     
  19 C19            0.4986     5.7652     1.3678 C.3     
  20 C20            0.2182     4.2572     1.2544 C.3     
  21 C21            0.8367     3.6700    -0.0097 C.3     
  22 C22            0.6262     2.1555    -0.0400 C.3     
  23 C23            1.3582     1.5159     1.1415 C.3     
  24 H24           -1.3901     2.2990    -0.7848 H       
  25 H25           -1.2636     2.2485     0.9901 H       
  26 H26           -0.5548    -0.1250     0.8717 H       
  27 H27           -2.1418     0.1075     0.1000 H       
  28 H28           -0.6715    -1.3174    -1.2991 H       
  29 H29           -2.1625     0.2000    -2.3853 H       
  30 H30            1.4937    -0.3807    -0.5370 H       
  31 H31            1.3652    -0.3289    -2.3115 H       
  32 H32            0.6574     2.0446    -2.1911 H       
  33 H33            3.1980     1.4372    -0.6125 H       
  34 H34            3.0659     1.5018    -2.3860 H       
  35 H35            3.9536     3.6330    -1.4826 H       
  36 H36            2.3643     3.8769    -2.2466 H       
  37 H37            2.8699     3.5181     0.7441 H       
  38 H38            1.9339     5.9455    -0.8525 H       
  39 H39            4.5852     5.3569     0.5627 H       
  40 H40            4.3326     6.0642    -1.0668 H       
  41 H41            4.6737     7.6167     1.2173 H       
  42 H42            3.7281     8.1610    -0.1977 H       
  43 H43            1.7841     8.0745     1.0321 H       
  44 H44            0.8386     8.4234     3.1833 H       
  45 H45            1.5933     7.6675     4.6071 H       
  46 H46            2.0844     9.3021     4.1021 H       
  47 H47            3.7298     5.1865     2.3830 H       
  48 H48            2.3000     5.4339     3.4140 H       
  49 H49            2.3630     4.0495     2.2970 H       
  50 H50            0.0943     6.1481     2.3048 H       
  51 H51            0.0476     6.2906     0.5260 H       
  52 H52            0.6359     3.7504     2.1243 H       
  53 H53           -0.8595     4.0956     1.2323 H       
  54 H54            0.3407     4.1019    -0.8790 H       
  55 H55            1.2092     0.4364     1.1199 H       
  56 H56            2.4232     1.7372     1.0720 H       
  57 H57            0.9636     1.9185     2.0745 H       
@<TRIPOS>BOND
   1    1    2 1
   2    1   22 1
   3    1   24 1
   4    1   25 1
   5    2    3 1
   6    2   26 1
   7    2   27 1
   8    3    4 1
   9    3    5 1
  10    3   28 1
  11    4   29 1
  12    5    6 1
  13    5   30 1
  14    5   31 1
  15    6    7 1
  16    6   22 1
  17    6   32 1
  18    7    8 1
  19    7   33 1
  20    7   34 1
  21    8    9 1
  22    8   35 1
  23    8   36 1
  24    9   10 1
  25    9   21 1
  26    9   37 1
  27   10   11 1
  28   10   17 1
  29   10   38 1
  30   11   12 1
  31   11   39 1
  32   11   40 1
  33   12   13 1
  34   12   41 1
  35   12   42 1
  36   13   14 1
  37   13   17 1
  38   13   43 1
  39   14   15 2
  40   14   16 1
  41   16   44 1
  42   16   45 1
  43   16   46 1
  44   17   18 1
  45   17   19 1
  46   18   47 1
  47   18   48 1
  48   18   49 1
  49   19   20 1
  50   19   50 1
  51   19   51 1
  52   20   21 1
  53   20   52 1
  54   20   53 1
  55   21   22 1
  56   21   54 1
  57   22   23 1
  58   23   55 1
  59   23   56 1
  60   23   57 1

#	End of record

