#	Name: ASD01870133
#	Creating user name:	WinNT
#	Creation time:	15. 06. 2019 19:38

#	Modifying user name:	WinNT
#	Modification time:	15. 06. 2019 19:38

#	Program:	/corina/corina34_cracker 3.40 0067  02.08.2006

@<TRIPOS>MOLECULE
ASD01870133
  58   60    0    0    0
SMALL
NO_CHARGES


@<TRIPOS>ATOM
   1 C1             1.3865     1.4329     1.4436 C.ar    
   2 C2             1.4217     0.0529     1.4751 C.ar    
   3 C3             1.3676    -0.6767     0.2976 C.ar    
   4 C4             1.2780    -0.0302    -0.9173 C.ar    
   5 C5             1.2415     1.3656    -0.9621 C.ar    
   6 C6             1.2966     2.0987     0.2307 C.ar    
   7 O7             1.2614     3.4553     0.1989 O.3     
   8 C8             0.0478     4.0339     0.1157 C.2     
   9 N9            -0.0649     5.3754     0.1787 N.am    
  10 O10           -0.9453     3.3462    -0.0161 O.2     
  11 Cl11           1.4134    -2.4113     0.3525 Cl      
  12 C12            1.1457     2.0639    -2.2583 C.2     
  13 O13            1.1143     3.2790    -2.2934 O.2     
  14 N14            1.0931     1.3551    -3.4034 N.am    
  15 C15            0.9299     2.0137    -4.6269 C.ar    
  16 C16            1.4945     3.2666    -4.8233 C.ar    
  17 C17            0.2069     1.4124    -5.6508 C.ar    
  18 C18            0.0484     2.0658    -6.8580 C.ar    
  19 C19            0.6081     3.3162    -7.0476 C.ar    
  20 C20            1.3321     3.9142    -6.0328 C.ar    
  21 Cl21          -0.4952    -0.1574    -5.4133 Cl      
  22 C22           -1.3218     6.1343     0.1013 C.3     
  23 C23           -0.9645     7.6286     0.2455 C.3     
  24 C24            0.4109     7.5894     0.9625 C.3     
  25 C25            1.0510     6.3247     0.3430 C.3     
  26 C26           -1.9855     5.8922    -1.2299 C.2     
  27 O27           -1.3434     5.4521    -2.1539 O.2     
  28 O28           -3.2900     6.1655    -1.3890 O.3     
  29 C29           -3.8626     5.9076    -2.6982 C.3     
  30 C30           -3.7089     4.4240    -3.0389 C.3     
  31 C31           -5.3473     6.2772    -2.6873 C.3     
  32 C32           -3.1351     6.7500    -3.7480 C.3     
  33 N33            0.4364     4.0135    -8.3420 N.pl3   
  34 O34           -0.1972     3.4860    -9.2385 O.2     
  35 O35            0.9287     5.1147    -8.5105 O.2     
  36 H36            1.4246     1.9944     2.3653 H       
  37 H37            1.4922    -0.4609     2.4224 H       
  38 H38            1.2364    -0.6020    -1.8326 H       
  39 H39            1.1683     0.3883    -3.3792 H       
  40 H40            2.0600     3.7349    -4.0312 H       
  41 H41           -0.5128     1.5995    -7.6542 H       
  42 H42            1.7677     4.8908    -6.1844 H       
  43 H43           -1.9874     5.8325     0.9100 H       
  44 H44           -0.8758     8.1001    -0.7332 H       
  45 H45           -1.7040     8.1446     0.8578 H       
  46 H46            0.9972     8.4789     0.7321 H       
  47 H47            0.2871     7.4730     2.0392 H       
  48 H48            1.8066     5.9148     1.0132 H       
  49 H49            1.4896     6.5579    -0.6272 H       
  50 H50           -4.2272     3.8239    -2.2910 H       
  51 H51           -4.1387     4.2304    -4.0216 H       
  52 H52           -2.6512     4.1607    -3.0467 H       
  53 H53           -5.4568     7.3342    -2.4445 H       
  54 H54           -5.7771     6.0837    -3.6700 H       
  55 H55           -5.8656     5.6771    -1.9394 H       
  56 H56           -2.0774     6.4867    -3.7558 H       
  57 H57           -3.5649     6.5564    -4.7307 H       
  58 H58           -3.2446     7.8070    -3.5053 H       
@<TRIPOS>BOND
   1    1    2 ar
   2    1    6 ar
   3    1   36 1
   4    2    3 ar
   5    2   37 1
   6    3    4 ar
   7    3   11 1
   8    4    5 ar
   9    4   38 1
  10    5    6 ar
  11    5   12 1
  12    6    7 1
  13    7    8 1
  14    8    9 am
  15    8   10 2
  16    9   22 1
  17    9   25 1
  18   12   13 2
  19   12   14 am
  20   14   15 1
  21   14   39 1
  22   15   16 ar
  23   15   17 ar
  24   16   20 ar
  25   16   40 1
  26   17   18 ar
  27   17   21 1
  28   18   19 ar
  29   18   41 1
  30   19   20 ar
  31   19   33 1
  32   20   42 1
  33   22   23 1
  34   22   26 1
  35   22   43 1
  36   23   24 1
  37   23   44 1
  38   23   45 1
  39   24   25 1
  40   24   46 1
  41   24   47 1
  42   25   48 1
  43   25   49 1
  44   26   27 2
  45   26   28 1
  46   28   29 1
  47   29   30 1
  48   29   31 1
  49   29   32 1
  50   30   50 1
  51   30   51 1
  52   30   52 1
  53   31   53 1
  54   31   54 1
  55   31   55 1
  56   32   56 1
  57   32   57 1
  58   32   58 1
  59   33   34 2
  60   33   35 2

#	End of record

