#	Name: ASD04930090
#	Creating user name:	WinNT
#	Creation time:	15. 06. 2019 20:56

#	Modifying user name:	WinNT
#	Modification time:	15. 06. 2019 20:56

#	Program:	/corina/corina34_cracker 3.40 0067  02.08.2006

@<TRIPOS>MOLECULE
ASD04930090
  54   55    0    0    0
SMALL
NO_CHARGES


@<TRIPOS>ATOM
   1 N1             1.2810     1.2305    -1.7118 N.am    
   2 C2             1.3157    -0.1068    -1.5857 C.2     
   3 C3             1.2180    -0.7397    -0.2711 C.2     
   4 C4             1.0875     0.0669     0.8618 C.2     
   5 C5             1.0544     1.5217     0.6790 C.ar    
   6 C6             0.9246     2.3746     1.7815 C.ar    
   7 C7             0.8949     3.7375     1.5898 C.ar    
   8 C8             0.9931     4.2680     0.3095 C.ar    
   9 C9             1.1212     3.4418    -0.7850 C.ar    
  10 C10            1.1530     2.0601    -0.6160 C.ar    
  11 C11            1.2560    -2.2018    -0.1439 C.2     
  12 O12            2.3138    -2.7941    -0.2469 O.2     
  13 N13            0.1191    -2.8879     0.0869 N.am    
  14 N14           -1.0804    -2.2003     0.3129 N.am    
  15 O15            1.4297    -0.8013    -2.5800 O.2     
  16 C16           -2.0096    -2.1283    -0.6606 C.2     
  17 C17           -3.2999    -1.3886    -0.4175 C.3     
  18 C18           -4.1719    -1.4581    -1.6728 C.3     
  19 C19           -5.4819    -0.7072    -1.4259 C.3     
  20 C20           -6.3539    -0.7766    -2.6812 C.3     
  21 C21           -7.6639    -0.0257    -2.4344 C.3     
  22 C22           -8.5359    -0.0952    -3.6896 C.3     
  23 C23           -9.8459     0.6558    -3.4428 C.3     
  24 O24           -1.8074    -2.6587    -1.7324 O.2     
  25 O25            0.9940    -0.4783     2.0926 O.3     
  26 Cl26           0.7336     4.7984     2.9544 Cl      
  27 C27            0.1377    -4.3527     0.1015 C.3     
  28 C28            0.4210    -4.8450     1.5221 C.3     
  29 H29            1.3516     1.6235    -2.5958 H       
  30 H30            0.8478     1.9652     2.7779 H       
  31 H31            0.9683     5.3388     0.1712 H       
  32 H32            1.1962     3.8660    -1.7754 H       
  33 H33           -1.2422    -1.7760     1.1701 H       
  34 H34           -3.8291    -1.8463     0.4183 H       
  35 H35           -3.0828    -0.3465    -0.1832 H       
  36 H36           -3.6427    -1.0004    -2.5086 H       
  37 H37           -4.3891    -2.5002    -1.9071 H       
  38 H38           -6.0111    -1.1648    -0.5901 H       
  39 H39           -5.2647     0.3350    -1.1916 H       
  40 H40           -5.8247    -0.3189    -3.5170 H       
  41 H41           -6.5711    -1.8187    -2.9155 H       
  42 H42           -8.1931    -0.4834    -1.5986 H       
  43 H43           -7.4467     1.0164    -2.2000 H       
  44 H44           -8.0067     0.3625    -4.5254 H       
  45 H45           -8.7531    -1.1373    -3.9240 H       
  46 H46          -10.4671     0.6063    -4.3371 H       
  47 H47          -10.3751     0.1981    -2.6070 H       
  48 H48           -9.6287     1.6979    -3.2085 H       
  49 H49            0.9495    -1.4443     2.0925 H       
  50 H50           -0.8296    -4.7316    -0.2282 H       
  51 H51            0.9171    -4.7128    -0.5700 H       
  52 H52            1.3884    -4.4661     1.8519 H       
  53 H53           -0.3584    -4.4849     2.1937 H       
  54 H54            0.4349    -5.9349     1.5330 H       
@<TRIPOS>BOND
   1    1    2 am
   2    1   10 1
   3    1   29 1
   4    2    3 1
   5    2   15 2
   6    3    4 2
   7    3   11 1
   8    4    5 1
   9    4   25 1
  10    5    6 ar
  11    5   10 ar
  12    6    7 ar
  13    6   30 1
  14    7    8 ar
  15    7   26 1
  16    8    9 ar
  17    8   31 1
  18    9   10 ar
  19    9   32 1
  20   11   12 2
  21   11   13 am
  22   13   14 1
  23   13   27 1
  24   14   16 am
  25   14   33 1
  26   16   17 1
  27   16   24 2
  28   17   18 1
  29   17   34 1
  30   17   35 1
  31   18   19 1
  32   18   36 1
  33   18   37 1
  34   19   20 1
  35   19   38 1
  36   19   39 1
  37   20   21 1
  38   20   40 1
  39   20   41 1
  40   21   22 1
  41   21   42 1
  42   21   43 1
  43   22   23 1
  44   22   44 1
  45   22   45 1
  46   23   46 1
  47   23   47 1
  48   23   48 1
  49   25   49 1
  50   27   28 1
  51   27   50 1
  52   27   51 1
  53   28   52 1
  54   28   53 1
  55   28   54 1

#	End of record

