#	Name: ASD02198799
#	Creating user name:	WinNT
#	Creation time:	15. 06. 2019 20:20

#	Modifying user name:	WinNT
#	Modification time:	15. 06. 2019 20:20

#	Program:	/corina/corina34_cracker 3.40 0067  02.08.2006

@<TRIPOS>MOLECULE
ASD02198799
  45   49    0    0    0
SMALL
NO_CHARGES


@<TRIPOS>ATOM
   1 F1             1.0820    -1.5785     2.8257 F       
   2 C2            -0.0433     1.5018    -0.1149 C.2     
   3 C3            -0.0730     0.1621     0.0976 C.2     
   4 N4             1.0714    -0.5395     0.2604 N.pl3   
   5 N5             2.2359    -0.0048     0.2263 N.2     
   6 C6             2.4075     1.2843     0.0277 C.2     
   7 C7             1.2217     2.1357    -0.1604 C.2     
   8 C8             0.9798    -1.9186     0.4774 C.ar    
   9 C9             0.9868    -2.4218     1.7746 C.ar    
  10 C10            0.8967    -3.7858     1.9882 C.ar    
  11 C11            0.7992    -4.6505     0.9151 C.ar    
  12 C12            0.7918    -4.1534    -0.3818 C.ar    
  13 C13            0.8761    -2.7866    -0.6008 C.ar    
  14 C14            3.7646     1.8665    -0.0050 C.2     
  15 N15            4.3067     2.6062    -1.0182 N.pl3   
  16 N16            5.6087     2.9574    -0.6406 N.2     
  17 C17            5.8525     2.4579     0.5448 C.2     
  18 C18            4.7202     1.7711     0.9828 C.2     
  19 C19            3.6735     2.9512    -2.2190 C.ar    
  20 C20            3.8079     4.2343    -2.7328 C.ar    
  21 C21            3.1827     4.5712    -3.9173 C.ar    
  22 C22            2.4236     3.6324    -4.5916 C.ar    
  23 C23            2.2878     2.3538    -4.0826 C.ar    
  24 C24            2.9148     2.0092    -2.9012 C.ar    
  25 O25            1.3247     3.3387    -0.3487 O.2     
  26 N26            0.6932    -5.0332    -1.4696 N.pl3   
  27 N27            0.7730    -4.6825    -2.8235 N.2     
  28 C28            0.6366    -5.7713    -3.5370 C.2     
  29 C29            0.4657    -6.8496    -2.6621 C.2     
  30 C30            0.5101    -6.3709    -1.3971 C.2     
  31 H31           -0.9546     2.0654    -0.2494 H       
  32 H32           -1.0228    -0.3504     0.1376 H       
  33 H33            0.9029    -4.1753     2.9955 H       
  34 H34            0.7290    -5.7148     1.0850 H       
  35 H35            0.8701    -2.3988    -1.6087 H       
  36 H36            6.7760     2.5640     1.0946 H       
  37 H37            4.6142     1.2519     1.9239 H       
  38 H38            4.4003     4.9680    -2.2065 H       
  39 H39            3.2865     5.5691    -4.3173 H       
  40 H40            1.9354     3.8984    -5.5175 H       
  41 H41            1.6940     1.6230    -4.6113 H       
  42 H42            2.8085     1.0104    -2.5042 H       
  43 H43            0.6526    -5.8275    -4.6154 H       
  44 H44            0.3275    -7.8824    -2.9461 H       
  45 H45            0.4098    -6.9519    -0.4922 H       
@<TRIPOS>BOND
   1    1    9 1
   2    2    3 2
   3    2    7 1
   4    2   31 1
   5    3    4 1
   6    3   32 1
   7    4    5 1
   8    4    8 1
   9    5    6 2
  10    6    7 1
  11    6   14 1
  12    7   25 2
  13    8    9 ar
  14    8   13 ar
  15    9   10 ar
  16   10   11 ar
  17   10   33 1
  18   11   12 ar
  19   11   34 1
  20   12   13 ar
  21   12   26 1
  22   13   35 1
  23   14   15 1
  24   14   18 2
  25   15   16 1
  26   15   19 1
  27   16   17 2
  28   17   18 1
  29   17   36 1
  30   18   37 1
  31   19   20 ar
  32   19   24 ar
  33   20   21 ar
  34   20   38 1
  35   21   22 ar
  36   21   39 1
  37   22   23 ar
  38   22   40 1
  39   23   24 ar
  40   23   41 1
  41   24   42 1
  42   26   27 1
  43   26   30 1
  44   27   28 2
  45   28   29 1
  46   28   43 1
  47   29   30 2
  48   29   44 1
  49   30   45 1

#	End of record

