#	Name: ASD01911460
#	Creating user name:	WinNT
#	Creation time:	15. 06. 2019 19:57

#	Modifying user name:	WinNT
#	Modification time:	15. 06. 2019 19:57

#	Program:	/corina/corina34_cracker 3.40 0067  02.08.2006

@<TRIPOS>MOLECULE
ASD01911460
  52   53    0    0    0
SMALL
NO_CHARGES


@<TRIPOS>ATOM
   1 C1            -0.1910     2.4394     0.0479 C.3     
   2 C2            -0.4360     3.5549     1.0661 C.3     
   3 C3            -1.9410     3.7296     1.2789 C.3     
   4 C4            -2.5373     2.4214     1.8022 C.3     
   5 O5             0.1839     3.2117     2.3070 O.3     
   6 C6            -2.1860     4.8450     2.2971 C.3     
   7 C7            -2.6047     4.0971    -0.0498 C.3     
   8 C8             0.1603     4.8631     0.5427 C.3     
   9 N9             1.1882     2.5255    -0.4503 N.3     
  10 C10            1.3146     3.5739    -1.4715 C.3     
  11 C11            0.4148     3.2514    -2.6366 C.ar    
  12 C12           -0.8416     3.8222    -2.7183 C.ar    
  13 C13           -1.6670     3.5263    -3.7870 C.ar    
  14 C14           -1.2358     2.6601    -4.7742 C.ar    
  15 C15            0.0209     2.0900    -4.6930 C.ar    
  16 C16            0.8480     2.3893    -3.6265 C.ar    
  17 C17            2.1333     2.7478     0.6521 C.3     
  18 C18            2.7942     1.4438     1.0178 C.ar    
  19 C19            4.0296     1.1223     0.4873 C.ar    
  20 C20            4.6358    -0.0739     0.8227 C.ar    
  21 C21            4.0068    -0.9484     1.6890 C.ar    
  22 C22            2.7719    -0.6266     2.2202 C.ar    
  23 C23            2.1676     0.5716     1.8882 C.ar    
  24 H24           -0.3452     1.4717     0.5251 H       
  25 H25           -0.8857     2.5487    -0.7849 H       
  26 H26           -2.0645     2.1596     2.7488 H       
  27 H27           -3.6095     2.5458     1.9539 H       
  28 H28           -2.3628     1.6267     1.0769 H       
  29 H29           -0.3003     2.5491     2.8186 H       
  30 H30           -1.7612     5.7770     1.9242 H       
  31 H31           -3.2582     4.9695     2.4487 H       
  32 H32           -1.7132     4.5832     3.2436 H       
  33 H33           -2.4302     3.3024    -0.7751 H       
  34 H34           -3.6769     4.2215     0.1019 H       
  35 H35           -2.1799     5.0291    -0.4226 H       
  36 H36           -0.2580     5.0860    -0.4388 H       
  37 H37           -0.0790     5.6729     1.2321 H       
  38 H38            1.2426     4.7624     0.4621 H       
  39 H39            1.0256     4.5341    -1.0442 H       
  40 H40            2.3482     3.6249    -1.8139 H       
  41 H41           -1.1784     4.4990    -1.9470 H       
  42 H42           -2.6488     3.9717    -3.8504 H       
  43 H43           -1.8810     2.4284    -5.6087 H       
  44 H44            0.3576     1.4130    -5.4641 H       
  45 H45            1.8312     1.9468    -3.5649 H       
  46 H46            2.8926     3.4652     0.3407 H       
  47 H47            1.5973     3.1386     1.5170 H       
  48 H48            4.5210     1.8056    -0.1895 H       
  49 H49            5.6006    -0.3253     0.4077 H       
  50 H50            4.4801    -1.8833     1.9505 H       
  51 H51            2.2803    -1.3100     2.8968 H       
  52 H52            1.2045     0.8247     2.3061 H       
@<TRIPOS>BOND
   1    1    2 1
   2    1    9 1
   3    1   24 1
   4    1   25 1
   5    2    3 1
   6    2    5 1
   7    2    8 1
   8    3    4 1
   9    3    6 1
  10    3    7 1
  11    4   26 1
  12    4   27 1
  13    4   28 1
  14    5   29 1
  15    6   30 1
  16    6   31 1
  17    6   32 1
  18    7   33 1
  19    7   34 1
  20    7   35 1
  21    8   36 1
  22    8   37 1
  23    8   38 1
  24    9   10 1
  25    9   17 1
  26   10   11 1
  27   10   39 1
  28   10   40 1
  29   11   12 ar
  30   11   16 ar
  31   12   13 ar
  32   12   41 1
  33   13   14 ar
  34   13   42 1
  35   14   15 ar
  36   14   43 1
  37   15   16 ar
  38   15   44 1
  39   16   45 1
  40   17   18 1
  41   17   46 1
  42   17   47 1
  43   18   19 ar
  44   18   23 ar
  45   19   20 ar
  46   19   48 1
  47   20   21 ar
  48   20   49 1
  49   21   22 ar
  50   21   50 1
  51   22   23 ar
  52   22   51 1
  53   23   52 1

#	End of record

