#	Name: ASD04220008
#	Creating user name:	WinNT
#	Creation time:	15. 06. 2019 20:48

#	Modifying user name:	WinNT
#	Modification time:	15. 06. 2019 20:48

#	Program:	/corina/corina34_cracker 3.40 0067  02.08.2006

@<TRIPOS>MOLECULE
ASD04220008
  58   60    0    0    0
SMALL
NO_CHARGES


@<TRIPOS>ATOM
   1 C1            -0.0144     1.2086     0.0087 C.2     
   2 O2             0.0021    -0.0041     0.0020 O.2     
   3 C3            -4.9462     0.6865     0.0292 C.ar    
   4 C4            -5.3924     0.1435     1.2252 C.ar    
   5 C5            -6.4379    -0.7675     1.2257 C.ar    
   6 C6            -7.0353    -1.1341     0.0352 C.ar    
   7 C7            -6.5895    -0.5909    -1.1603 C.ar    
   8 C8            -5.5431     0.3198    -1.1610 C.ar    
   9 O9            -7.1773    -0.9520    -2.3322 O.3     
  10 C10           -8.2481    -1.8953    -2.2573 C.3     
  11 O11           -4.8043     0.5043     2.3970 O.3     
  12 C12           -5.3146    -0.0941     3.5902 C.3     
  13 C13            2.4402     1.2127    -0.0147 C.3     
  14 N14            1.1435     1.8983     0.0013 N.am    
  15 C15            1.1583     3.3706     0.0086 C.3     
  16 C16            1.8047     3.8269     1.3156 C.3     
  17 C17            3.0824     3.0722     1.5742 C.ar    
  18 C18            3.9907     3.6320     2.4651 C.ar    
  19 C19            5.1776     2.9930     2.7572 C.ar    
  20 C20            5.4719     1.7784     2.1585 C.ar    
  21 C21            4.5681     1.2180     1.2650 C.ar    
  22 C22            3.3739     1.8689     0.9712 C.ar    
  23 O23            6.6381     1.1395     2.4436 O.3     
  24 C24            7.5174     1.7779     3.3717 C.3     
  25 C25           -1.3296     1.9443     0.0189 C.3     
  26 C26           -2.4789     0.9344     0.0189 C.3     
  27 C27           -3.8141     1.6813     0.0293 C.3     
  28 O28            4.8522     0.0268     0.6736 O.3     
  29 C29            4.4182    -1.1539     1.3516 C.3     
  30 H30           -6.7848    -1.1908     2.1568 H       
  31 H31           -7.8493    -1.8439     0.0356 H       
  32 H32           -5.1960     0.7428    -2.0920 H       
  33 H33           -9.0494    -1.4872    -1.6413 H       
  34 H34           -8.6265    -2.0958    -3.2596 H       
  35 H35           -7.8851    -2.8225    -1.8138 H       
  36 H36           -4.7586     0.2790     4.4502 H       
  37 H37           -6.3689     0.1591     3.7014 H       
  38 H38           -5.2055    -1.1769     3.5289 H       
  39 H39            2.3008     0.1668     0.2586 H       
  40 H40            2.8692     1.2715    -1.0150 H       
  41 H41            1.7387     3.7378    -0.8378 H       
  42 H42            0.1382     3.7500    -0.0505 H       
  43 H43            2.0242     4.8928     1.2540 H       
  44 H44            1.1119     3.6513     2.1386 H       
  45 H45            3.7646     4.5784     2.9338 H       
  46 H46            5.8759     3.4383     3.4503 H       
  47 H47            8.4079     1.1645     3.5094 H       
  48 H48            7.8059     2.7555     2.9854 H       
  49 H49            7.0093     1.9006     4.3282 H       
  50 H50           -1.3916     2.5653     0.9126 H       
  51 H51           -1.4000     2.5749    -0.8673 H       
  52 H52           -2.4169     0.3134    -0.8748 H       
  53 H53           -2.4084     0.3037     0.9051 H       
  54 H54           -3.8846     2.3119    -0.8570 H       
  55 H55           -3.8761     2.3022     0.9230 H       
  56 H56            4.7078    -2.0318     0.7740 H       
  57 H57            4.8819    -1.1982     2.3371 H       
  58 H58            3.3339    -1.1323     1.4609 H       
@<TRIPOS>BOND
   1    1    2 2
   2    1   14 am
   3    1   25 1
   4    3    4 ar
   5    3    8 ar
   6    3   27 1
   7    4    5 ar
   8    4   11 1
   9    5    6 ar
  10    5   30 1
  11    6    7 ar
  12    6   31 1
  13    7    8 ar
  14    7    9 1
  15    8   32 1
  16    9   10 1
  17   10   33 1
  18   10   34 1
  19   10   35 1
  20   11   12 1
  21   12   36 1
  22   12   37 1
  23   12   38 1
  24   13   14 1
  25   13   22 1
  26   13   39 1
  27   13   40 1
  28   14   15 1
  29   15   16 1
  30   15   41 1
  31   15   42 1
  32   16   17 1
  33   16   43 1
  34   16   44 1
  35   17   18 ar
  36   17   22 ar
  37   18   19 ar
  38   18   45 1
  39   19   20 ar
  40   19   46 1
  41   20   21 ar
  42   20   23 1
  43   21   22 ar
  44   21   28 1
  45   23   24 1
  46   24   47 1
  47   24   48 1
  48   24   49 1
  49   25   26 1
  50   25   50 1
  51   25   51 1
  52   26   27 1
  53   26   52 1
  54   26   53 1
  55   27   54 1
  56   27   55 1
  57   28   29 1
  58   29   56 1
  59   29   57 1
  60   29   58 1

#	End of record

