#	Name: ASD01884419
#	Creating user name:	WinNT
#	Creation time:	15. 06. 2019 19:48

#	Modifying user name:	WinNT
#	Modification time:	15. 06. 2019 19:48

#	Program:	/corina/corina34_cracker 3.40 0067  02.08.2006

@<TRIPOS>MOLECULE
ASD01884419
  40   42    0    0    0
SMALL
NO_CHARGES


@<TRIPOS>ATOM
   1 C1            -0.0535     1.3500    -0.0185 C.2     
   2 C2            -0.0285    -0.0109    -0.0240 C.2     
   3 C3             1.2191    -0.6747    -0.0230 C.2     
   4 C4             2.3809     0.0636    -0.0165 C.2     
   5 N5             2.3345     1.4122    -0.0111 N.am    
   6 C6             1.1578     2.0648    -0.0119 C.2     
   7 C7             1.2762    -2.1550    -0.0285 C.ar    
   8 C8             3.5839     2.1771    -0.0037 C.3     
   9 O9             1.1415     3.2848    -0.0069 O.2     
  10 C10            4.0171     2.4453    -1.4220 C.ar    
  11 C11            3.5907     3.5893    -2.0703 C.ar    
  12 C12            3.9880     3.8352    -3.3713 C.ar    
  13 C13            4.8121     2.9375    -4.0238 C.ar    
  14 C14            5.2393     1.7939    -3.3751 C.ar    
  15 C15            4.8455     1.5501    -2.0726 C.ar    
  16 C16            0.7891    -2.8754     1.0640 C.ar    
  17 C17            1.8119    -2.8279    -1.1286 C.ar    
  18 C18            1.8652    -4.1924    -1.1360 C.ar    
  19 C19            1.3820    -4.9170    -0.0391 C.ar    
  20 C20            0.8407    -4.2400     1.0612 C.ar    
  21 C21            1.4382    -6.3848    -0.0447 C.2     
  22 C22            1.0349    -7.1590     1.1837 C.3     
  23 O23            1.8091    -6.9737    -1.0381 O.2     
  24 H24           -0.9962     1.8769    -0.0236 H       
  25 H25           -0.9492    -0.5755    -0.0287 H       
  26 H26            3.3362    -0.4401    -0.0154 H       
  27 H27            3.4274     3.1237     0.5135 H       
  28 H28            4.3568     1.6057     0.5104 H       
  29 H29            2.9468     4.2907    -1.5606 H       
  30 H30            3.6543     4.7287    -3.8781 H       
  31 H31            5.1220     3.1293    -5.0404 H       
  32 H32            5.8829     1.0923    -3.8850 H       
  33 H33            5.1792     0.6567    -1.5658 H       
  34 H34            0.3715    -2.3530     1.9120 H       
  35 H35            2.1840    -2.2687    -1.9743 H       
  36 H36            2.2792    -4.7124    -1.9872 H       
  37 H37            0.4679    -4.7967     1.9083 H       
  38 H38            0.8246    -6.4652     1.9977 H       
  39 H39            0.1424    -7.7457     0.9667 H       
  40 H40            1.8462    -7.8260     1.4754 H       
@<TRIPOS>BOND
   1    1    2 2
   2    1    6 1
   3    1   24 1
   4    2    3 1
   5    2   25 1
   6    3    4 2
   7    3    7 1
   8    4    5 1
   9    4   26 1
  10    5    6 am
  11    5    8 1
  12    6    9 2
  13    7   16 ar
  14    7   17 ar
  15    8   10 1
  16    8   27 1
  17    8   28 1
  18   10   11 ar
  19   10   15 ar
  20   11   12 ar
  21   11   29 1
  22   12   13 ar
  23   12   30 1
  24   13   14 ar
  25   13   31 1
  26   14   15 ar
  27   14   32 1
  28   15   33 1
  29   16   20 ar
  30   16   34 1
  31   17   18 ar
  32   17   35 1
  33   18   19 ar
  34   18   36 1
  35   19   20 ar
  36   19   21 1
  37   20   37 1
  38   21   22 1
  39   21   23 2
  40   22   38 1
  41   22   39 1
  42   22   40 1

#	End of record

