#	Name: ASD05380313
#	Creating user name:	WinNT
#	Creation time:	15. 06. 2019 20:59

#	Modifying user name:	WinNT
#	Modification time:	15. 06. 2019 20:59

#	Program:	/corina/corina34_cracker 3.40 0067  02.08.2006

@<TRIPOS>MOLECULE
ASD05380313
  57   58    0    0    0
SMALL
NO_CHARGES


@<TRIPOS>ATOM
   1 O1            -0.0177     1.4528     0.0100 O.3     
   2 C2             0.0021    -0.0041     0.0020 C.3     
   3 C3             1.5020    -0.3567    -0.0142 C.3     
   4 N4             2.1699     0.9539    -0.0135 N.am    
   5 C5             1.2373     1.9159     0.0005 C.2     
   6 C6            -0.6788    -0.5349    -1.2332 C.ar    
   7 C7            -1.4703    -1.6657    -1.1530 C.ar    
   8 C8            -2.0956    -2.1542    -2.2838 C.ar    
   9 C9            -1.9286    -1.5092    -3.5007 C.ar    
  10 C10           -1.1339    -0.3748    -3.5785 C.ar    
  11 C11           -0.5154     0.1130    -2.4437 C.ar    
  12 O12           -2.5423    -1.9881    -4.6147 O.3     
  13 C13           -2.3255    -1.2732    -5.8329 C.3     
  14 C14           -3.0907    -1.9563    -6.9681 C.3     
  15 O15           -4.4948    -1.8631    -6.7198 O.3     
  16 C16           -5.3049    -2.4735    -7.7264 C.3     
  17 O17            1.5068     3.1008     0.0035 O.2     
  18 C18            1.8803    -1.1534     1.2360 C.3     
  19 O19            3.2449    -1.5673     1.1422 O.3     
  20 Si20           3.7661    -2.4298     2.4247 Si      
  21 C21            2.7345    -3.9715     2.5968 C.3     
  22 C22            5.5505    -2.9016     2.1719 C.3     
  23 C23            3.6086    -1.4014     3.9701 C.3     
  24 C24            6.3977    -1.6354     2.0304 C.3     
  25 C25            6.0395    -3.7107     3.3749 C.3     
  26 C26            5.6799    -3.7462     0.9027 C.3     
  27 H27           -0.4733    -0.3976     0.9005 H       
  28 H28            1.7544    -0.9146    -0.9159 H       
  29 H29            3.1291     1.0981    -0.0216 H       
  30 H30           -1.5997    -2.1676    -0.2055 H       
  31 H31           -2.7135    -3.0377    -2.2207 H       
  32 H32           -1.0024     0.1291    -4.5247 H       
  33 H33            0.1031     0.9964    -2.5037 H       
  34 H34           -2.6800    -0.2486    -5.7208 H       
  35 H35           -1.2606    -1.2659    -6.0653 H       
  36 H36           -2.8553    -1.4649    -7.9122 H       
  37 H37           -2.8001    -3.0055    -7.0223 H       
  38 H38           -6.3568    -2.3599    -7.4646 H       
  39 H39           -5.1154    -1.9928    -8.6862 H       
  40 H40           -5.0603    -3.5334    -7.7964 H       
  41 H41            1.7504    -0.5274     2.1189 H       
  42 H42            1.2390    -2.0311     1.3154 H       
  43 H43            2.8267    -4.5732     1.6926 H       
  44 H44            3.0829    -4.5479     3.4539 H       
  45 H45            1.6905    -3.6955     2.7447 H       
  46 H46            2.5646    -1.1254     4.1180 H       
  47 H47            3.9569    -1.9778     4.8271 H       
  48 H48            4.2121    -0.4994     3.8694 H       
  49 H49            6.3056    -1.0337     2.9347 H       
  50 H50            7.4418    -1.9115     1.8825 H       
  51 H51            6.0494    -1.0590     1.1734 H       
  52 H52            5.4360    -4.6127     3.4756 H       
  53 H53            7.0836    -3.9867     3.2270 H       
  54 H54            5.9474    -3.1090     4.2791 H       
  55 H55            5.3316    -3.1698     0.0456 H       
  56 H56            6.7239    -4.0222     0.7547 H       
  57 H57            5.0763    -4.6482     1.0034 H       
@<TRIPOS>BOND
   1    1    2 1
   2    1    5 1
   3    2    3 1
   4    2    6 1
   5    2   27 1
   6    3    4 1
   7    3   18 1
   8    3   28 1
   9    4    5 am
  10    4   29 1
  11    5   17 2
  12    6    7 ar
  13    6   11 ar
  14    7    8 ar
  15    7   30 1
  16    8    9 ar
  17    8   31 1
  18    9   10 ar
  19    9   12 1
  20   10   11 ar
  21   10   32 1
  22   11   33 1
  23   12   13 1
  24   13   14 1
  25   13   34 1
  26   13   35 1
  27   14   15 1
  28   14   36 1
  29   14   37 1
  30   15   16 1
  31   16   38 1
  32   16   39 1
  33   16   40 1
  34   18   19 1
  35   18   41 1
  36   18   42 1
  37   19   20 1
  38   20   21 1
  39   20   22 1
  40   20   23 1
  41   21   43 1
  42   21   44 1
  43   21   45 1
  44   22   24 1
  45   22   25 1
  46   22   26 1
  47   23   46 1
  48   23   47 1
  49   23   48 1
  50   24   49 1
  51   24   50 1
  52   24   51 1
  53   25   52 1
  54   25   53 1
  55   25   54 1
  56   26   55 1
  57   26   56 1
  58   26   57 1

#	End of record

