#	Name: ASD02508131
#	Creating user name:	WinNT
#	Creation time:	15. 06. 2019 20:23

#	Modifying user name:	WinNT
#	Modification time:	15. 06. 2019 20:23

#	Program:	/corina/corina34_cracker 3.40 0067  02.08.2006

@<TRIPOS>MOLECULE
ASD02508131
  43   45    0    0    0
SMALL
NO_CHARGES


@<TRIPOS>ATOM
   1 C1             0.2033     1.6281     0.0761 C.ar    
   2 C2             0.1494     0.2491     0.2061 C.ar    
   3 C3             1.4328     2.2667    -0.0834 C.ar    
   4 C4             2.5983     1.5169    -0.1108 C.ar    
   5 C5             2.5370     0.1432     0.0197 C.ar    
   6 C6             1.3162    -0.4897     0.1771 C.ar    
   7 N7            -0.7698     2.6270     0.0598 N.am    
   8 C8            -0.1368     3.8065    -0.0970 C.2     
   9 O9             1.1860     3.5958    -0.1845 O.3     
  10 S10            4.0197    -0.8080    -0.0155 S.o2    
  11 N11            3.9547    -1.7676    -1.3636 N.am    
  12 C12            3.8624    -1.1855    -2.6330 C.ar    
  13 O13           -0.6801     4.8928    -0.1549 O.2     
  14 C14           -2.2157     2.4302     0.1890 C.3     
  15 O15            5.0816     0.1119    -0.2286 O.2     
  16 O16            3.9619    -1.6827     1.1029 O.2     
  17 C17            3.1084    -1.8008    -3.6304 C.ar    
  18 C18            4.5165     0.0079    -2.8998 C.ar    
  19 C19            4.4237     0.5811    -4.1557 C.ar    
  20 C20            3.6792    -0.0334    -5.1462 C.ar    
  21 C21            3.0202    -1.2211    -4.8847 C.ar    
  22 Cl22           5.2429     2.0751    -4.4886 Cl      
  23 O23            2.4606    -2.9689    -3.3724 O.3     
  24 C24            1.7066    -3.5426    -4.4421 C.3     
  25 C25           -2.6089     2.4925     1.6663 C.3     
  26 C26            1.2599    -1.9889     0.3190 C.3     
  27 H27           -0.8022    -0.2463     0.3301 H       
  28 H28            3.5532     2.0062    -0.2345 H       
  29 H29            3.9806    -2.7330    -1.2734 H       
  30 H30           -2.7394     3.2131    -0.3597 H       
  31 H31           -2.4878     1.4567    -0.2187 H       
  32 H32            5.0978     0.4897    -2.1276 H       
  33 H33            3.6089     0.4174    -6.1251 H       
  34 H34            2.4397    -1.6985    -5.6603 H       
  35 H35            2.3695    -3.7544    -5.2811 H       
  36 H36            1.2420    -4.4686    -4.1033 H       
  37 H37            0.9333    -2.8424    -4.7579 H       
  38 H38           -2.3369     3.4661     2.0740 H       
  39 H39           -3.6848     2.3461     1.7624 H       
  40 H40           -2.0852     1.7097     2.2150 H       
  41 H41            1.4270    -2.2618     1.3610 H       
  42 H42            0.2805    -2.3474     0.0021 H       
  43 H43            2.0315    -2.4420    -0.3034 H       
@<TRIPOS>BOND
   1    1    2 ar
   2    1    3 ar
   3    1    7 1
   4    2    6 ar
   5    2   27 1
   6    3    4 ar
   7    3    9 1
   8    4    5 ar
   9    4   28 1
  10    5    6 ar
  11    5   10 1
  12    6   26 1
  13    7    8 am
  14    7   14 1
  15    8    9 1
  16    8   13 2
  17   10   11 am
  18   10   15 2
  19   10   16 2
  20   11   12 1
  21   11   29 1
  22   12   17 ar
  23   12   18 ar
  24   14   25 1
  25   14   30 1
  26   14   31 1
  27   17   23 1
  28   17   21 ar
  29   18   19 ar
  30   18   32 1
  31   19   20 ar
  32   19   22 1
  33   20   21 ar
  34   20   33 1
  35   21   34 1
  36   23   24 1
  37   24   35 1
  38   24   36 1
  39   24   37 1
  40   25   38 1
  41   25   39 1
  42   25   40 1
  43   26   41 1
  44   26   42 1
  45   26   43 1

#	End of record

