#	Name: ASD01913130
#	Creating user name:	WinNT
#	Creation time:	15. 06. 2019 20:01

#	Modifying user name:	WinNT
#	Modification time:	15. 06. 2019 20:01

#	Program:	/corina/corina34_cracker 3.40 0067  02.08.2006

@<TRIPOS>MOLECULE
ASD01913130
  44   47    0    0    0
SMALL
NO_CHARGES


@<TRIPOS>ATOM
   1 C1            -0.7908     1.9711     1.1182 C.ar    
   2 C2            -0.8104     0.5419     0.7192 C.2     
   3 N3            -1.8365    -0.3222     0.8865 N.2     
   4 C4            -1.4848    -1.4826     0.4140 C.2     
   5 O5            -0.2367    -1.4000    -0.0656 O.3     
   6 C6             0.1949    -0.1366     0.1145 C.2     
   7 C7            -2.3436    -2.7209     0.4080 C.3     
   8 C8            -2.5549    -3.1891    -1.0336 C.3     
   9 C9            -3.4539    -4.4275    -1.0430 C.3     
  10 C10           -2.7706    -5.5555    -0.2636 C.3     
  11 N11           -2.4330    -5.0651     1.0796 N.am    
  12 C12           -1.6477    -3.8296     1.2039 C.3     
  13 C13           -2.8360    -5.7359     2.1769 C.2     
  14 C14           -3.6952    -6.9296     2.0389 C.ar    
  15 O15           -2.4925    -5.3586     3.2803 O.2     
  16 C16            0.3438     2.7482     0.8824 C.ar    
  17 C17            0.3564     4.0788     1.2563 C.ar    
  18 C18           -0.7546     4.6394     1.8640 C.ar    
  19 C19           -1.8828     3.8703     2.1000 C.ar    
  20 C20           -1.9075     2.5428     1.7244 C.ar    
  21 C21           -3.3493    -7.9567     1.1508 C.ar    
  22 C22           -4.1860    -9.0526     1.0579 C.ar    
  23 N23           -5.6280    -8.1185     2.6730 N.ar    
  24 C24           -4.8613    -7.0551     2.7951 C.ar    
  25 F25            1.4280     2.2010     0.2904 F       
  26 F26           -0.7382     5.9403     2.2283 F       
  27 C27           -5.3309    -9.1004     1.8396 C.ar    
  28 F28           -6.1518   -10.1698     1.7521 F       
  29 H29            1.1606     0.2587    -0.1641 H       
  30 H30           -3.3085    -2.4967     0.8628 H       
  31 H31           -3.0277    -2.3927    -1.6084 H       
  32 H32           -1.5917    -3.4361    -1.4800 H       
  33 H33           -4.4083    -4.1878    -0.5744 H       
  34 H34           -3.6230    -4.7465    -2.0715 H       
  35 H35           -3.4476    -6.4059    -0.1826 H       
  36 H36           -1.8605    -5.8583    -0.7815 H       
  37 H37           -0.6461    -3.9916     0.8057 H       
  38 H38           -1.5838    -3.5412     2.2531 H       
  39 H39            1.2337     4.6819     1.0746 H       
  40 H40           -2.7465     4.3122     2.5745 H       
  41 H41           -2.7879     1.9451     1.9089 H       
  42 H42           -2.4517    -7.8933     0.5536 H       
  43 H43           -3.9512    -9.8630     0.3837 H       
  44 H44           -5.1372    -6.2730     3.4869 H       
@<TRIPOS>BOND
   1    1    2 1
   2    1   16 ar
   3    1   20 ar
   4    2    3 1
   5    2    6 2
   6    3    4 2
   7    4    5 1
   8    4    7 1
   9    5    6 1
  10    6   29 1
  11    7    8 1
  12    7   12 1
  13    7   30 1
  14    8    9 1
  15    8   31 1
  16    8   32 1
  17    9   10 1
  18    9   33 1
  19    9   34 1
  20   10   11 1
  21   10   35 1
  22   10   36 1
  23   11   12 1
  24   11   13 am
  25   12   37 1
  26   12   38 1
  27   13   14 1
  28   13   15 2
  29   14   21 ar
  30   14   24 ar
  31   16   17 ar
  32   16   25 1
  33   17   18 ar
  34   17   39 1
  35   18   19 ar
  36   18   26 1
  37   19   20 ar
  38   19   40 1
  39   20   41 1
  40   21   22 ar
  41   21   42 1
  42   22   27 ar
  43   22   43 1
  44   23   24 ar
  45   23   27 ar
  46   24   44 1
  47   27   28 1

#	End of record

