#	Name: ASD01882547
#	Creating user name:	WinNT
#	Creation time:	15. 06. 2019 19:44

#	Modifying user name:	WinNT
#	Modification time:	15. 06. 2019 19:44

#	Program:	/corina/corina34_cracker 3.40 0067  02.08.2006

@<TRIPOS>MOLECULE
ASD01882547
  54   58    0    0    0
SMALL
NO_CHARGES


@<TRIPOS>ATOM
   1 C1            -0.0170     1.4040     0.0098 C.2     
   2 C2             0.0021    -0.0041     0.0020 C.2     
   3 C3             1.1979    -0.6520    -0.0129 C.2     
   4 C4             2.3924     0.0887    -0.0203 C.2     
   5 C5             2.3586     1.4378    -0.0123 C.2     
   6 N6             1.1666     2.1005     0.0022 N.pl3   
   7 N7            -0.4824     3.4837     0.0230 N.2     
   8 N8            -0.9895     2.3010     0.0186 N.2     
   9 C9             0.8239     3.4172     0.0126 C.2     
  10 C10           -1.2874    -0.7840     0.0106 C.3     
  11 C11            1.2420    -2.1583    -0.0209 C.3     
  12 N12            1.3636    -2.6373    -1.4043 N.3     
  13 C13            1.6469    -4.0789    -1.4395 C.3     
  14 C14            1.6871    -4.5528    -2.8943 C.3     
  15 N15            2.7158    -3.7987    -3.6242 N.3     
  16 C16            2.4324    -2.3572    -3.5889 C.3     
  17 C17            2.3923    -1.8833    -2.1342 C.3     
  18 C18            2.8316    -4.2552    -4.9425 C.ar    
  19 C19            2.6010    -3.3858    -6.0035 C.ar    
  20 C20            2.7167    -3.8396    -7.3043 C.ar    
  21 C21            3.0617    -5.1582    -7.5502 C.ar    
  22 C22            3.2915    -6.0242    -6.4952 C.ar    
  23 C23            3.1822    -5.5741    -5.1930 C.ar    
  24 F24            3.1739    -5.6000    -8.8220 F       
  25 F25            2.2640    -2.0998    -5.7632 F       
  26 C26            1.7755     4.5857     0.0099 C.3     
  27 C27            2.0839     4.9889    -1.4335 C.3     
  28 C28            2.9438     6.2357    -1.6503 C.3     
  29 C29            3.5299     4.8471    -1.9130 C.3     
  30 H30            3.3425    -0.4246    -0.0322 H       
  31 H31            3.2825     1.9970    -0.0178 H       
  32 H32           -2.1300    -0.0927     0.0227 H       
  33 H33           -1.3412    -1.4069    -0.8822 H       
  34 H34           -1.3236    -1.4164     0.8976 H       
  35 H35            2.0998    -2.4998     0.5585 H       
  36 H36            0.3259    -2.5510     0.4204 H       
  37 H37            2.6103    -4.2717    -0.9675 H       
  38 H38            0.8648    -4.6164    -0.9034 H       
  39 H39            1.9257    -5.6159    -2.9239 H       
  40 H40            0.7152    -4.3848    -3.3584 H       
  41 H41            3.2145    -1.8196    -4.1251 H       
  42 H42            1.4690    -2.1643    -4.0609 H       
  43 H43            2.1536    -0.8202    -2.1045 H       
  44 H44            3.3641    -2.0512    -1.6701 H       
  45 H45            2.5375    -3.1656    -8.1290 H       
  46 H46            3.5604    -7.0519    -6.6898 H       
  47 H47            3.3657    -6.2498    -4.3707 H       
  48 H48            1.3198     5.4266     0.5326 H       
  49 H49            2.6999     4.3027     0.5134 H       
  50 H50            1.2921     4.7918    -2.1561 H       
  51 H51            2.7179     6.8586    -2.5157 H       
  52 H52            3.2898     6.7687    -0.7646 H       
  53 H53            4.2615     4.4665    -1.2002 H       
  54 H54            3.6896     4.5564    -2.9513 H       
@<TRIPOS>BOND
   1    1    2 1
   2    1    6 1
   3    1    8 2
   4    2    3 2
   5    2   10 1
   6    3    4 1
   7    3   11 1
   8    4    5 2
   9    4   30 1
  10    5    6 1
  11    5   31 1
  12    6    9 1
  13    7    8 1
  14    7    9 2
  15    9   26 1
  16   10   32 1
  17   10   33 1
  18   10   34 1
  19   11   12 1
  20   11   35 1
  21   11   36 1
  22   12   13 1
  23   12   17 1
  24   13   14 1
  25   13   37 1
  26   13   38 1
  27   14   15 1
  28   14   39 1
  29   14   40 1
  30   15   16 1
  31   15   18 1
  32   16   17 1
  33   16   41 1
  34   16   42 1
  35   17   43 1
  36   17   44 1
  37   18   19 ar
  38   18   23 ar
  39   19   20 ar
  40   19   25 1
  41   20   21 ar
  42   20   45 1
  43   21   22 ar
  44   21   24 1
  45   22   23 ar
  46   22   46 1
  47   23   47 1
  48   26   27 1
  49   26   48 1
  50   26   49 1
  51   27   28 1
  52   27   29 1
  53   27   50 1
  54   28   29 1
  55   28   51 1
  56   28   52 1
  57   29   53 1
  58   29   54 1

#	End of record

