#	Name: ASD03090253
#	Creating user name:	WinNT
#	Creation time:	15. 06. 2019 20:28

#	Modifying user name:	WinNT
#	Modification time:	15. 06. 2019 20:28

#	Program:	/corina/corina34_cracker 3.40 0067  02.08.2006

@<TRIPOS>MOLECULE
ASD03090253
  45   47    0    0    0
SMALL
NO_CHARGES


@<TRIPOS>ATOM
   1 C1             0.2771     1.1472     0.8063 C.ar    
   2 N2            -0.8304     1.5656     1.3886 N.ar    
   3 C3            -1.9720     0.9229     1.2544 C.ar    
   4 C4            -2.0471    -0.2365     0.4822 C.ar    
   5 C5            -0.8893    -0.7051    -0.1480 C.ar    
   6 C6             0.2840     0.0099     0.0195 C.ar    
   7 C7            -3.3298    -0.9587     0.3325 C.2     
   8 N8            -6.8328    -1.2235     0.4586 N.pl3   
   9 C9            -7.3401    -0.0302     0.9832 C.ar    
  10 C10           -6.6042     0.6871     1.9172 C.ar    
  11 C11           -7.1071     1.8653     2.4339 C.ar    
  12 C12           -8.3441     2.3309     2.0216 C.ar    
  13 C13           -9.0797     1.6172     1.0902 C.ar    
  14 C14           -8.5781     0.4421     0.5663 C.ar    
  15 N15           -4.5298    -0.4632     0.5598 N.2     
  16 C16           -5.4540    -1.3956     0.3219 C.2     
  17 N17           -4.8581    -2.5012    -0.0611 N.2     
  18 N18           -3.4781    -2.2416    -0.0671 N.pl3   
  19 C19           -2.4104    -3.1777    -0.4274 C.3     
  20 F20           -8.8345     3.4831     2.5289 F       
  21 C21           -2.1484    -3.0948    -1.9091 C.2     
  22 N22           -1.2007    -3.8715    -2.4704 N.am    
  23 O23           -2.7904    -2.3291    -2.5965 O.2     
  24 C24           -0.9460    -3.7909    -3.9109 C.3     
  25 C25            1.5539     1.9248     0.9965 C.3     
  26 C26          -10.4258     2.1266     0.6434 C.3     
  27 F27          -10.9716     1.2424    -0.2933 F       
  28 F28          -11.2790     2.2207     1.7481 F       
  29 F29          -10.2764     3.3896     0.0606 F       
  30 H30           -2.8577     1.2965     1.7468 H       
  31 H31           -0.9114    -1.5993    -0.7531 H       
  32 H32            1.1973    -0.3219    -0.4519 H       
  33 H33           -7.4389    -1.9315     0.1899 H       
  34 H34           -5.6396     0.3239     2.2396 H       
  35 H35           -6.5352     2.4235     3.1603 H       
  36 H36           -9.1520    -0.1140    -0.1602 H       
  37 H37           -1.5020    -2.9199     0.1171 H       
  38 H38           -2.7138    -4.1921    -0.1683 H       
  39 H39           -0.6873    -4.4839    -1.9207 H       
  40 H40           -1.8544    -4.0488    -4.4554 H       
  41 H41           -0.6426    -2.7766    -4.1700 H       
  42 H42           -0.1516    -4.4875    -4.1789 H       
  43 H43            2.0833     1.5458     1.8707 H       
  44 H44            2.1831     1.8119     0.1136 H       
  45 H45            1.3189     2.9791     1.1429 H       
@<TRIPOS>BOND
   1    1    2 ar
   2    1   25 1
   3    1    6 ar
   4    2    3 ar
   5    3    4 ar
   6    3   30 1
   7    4    5 ar
   8    4    7 1
   9    5    6 ar
  10    5   31 1
  11    6   32 1
  12    7   15 2
  13    7   18 1
  14    8    9 1
  15    8   16 1
  16    8   33 1
  17    9   10 ar
  18    9   14 ar
  19   10   11 ar
  20   10   34 1
  21   11   12 ar
  22   11   35 1
  23   12   13 ar
  24   12   20 1
  25   13   14 ar
  26   13   26 1
  27   14   36 1
  28   15   16 1
  29   16   17 2
  30   17   18 1
  31   18   19 1
  32   19   21 1
  33   19   37 1
  34   19   38 1
  35   21   22 am
  36   21   23 2
  37   22   24 1
  38   22   39 1
  39   24   40 1
  40   24   41 1
  41   24   42 1
  42   25   43 1
  43   25   44 1
  44   25   45 1
  45   26   27 1
  46   26   28 1
  47   26   29 1

#	End of record

