#	Name: ASD03081141
#	Creating user name:	WinNT
#	Creation time:	15. 06. 2019 20:27

#	Modifying user name:	WinNT
#	Modification time:	15. 06. 2019 20:27

#	Program:	/corina/corina34_cracker 3.40 0067  02.08.2006

@<TRIPOS>MOLECULE
ASD03081141
  27   30    0    0    0
SMALL
NO_CHARGES


@<TRIPOS>ATOM
   1 O1            -0.0144     1.2085     0.0087 O.3     
   2 N2             0.0021    -0.0041     0.0020 N.2     
   3 C3             1.2348    -0.4422    -0.0121 C.2     
   4 N4             2.0458     0.6363    -0.0141 N.2     
   5 C5             1.2412     1.6828    -0.0008 C.2     
   6 C6             3.0154    -2.1957    -0.0376 C.ar    
   7 C7             1.6625    -1.8637    -0.0234 C.ar    
   8 C8             0.7148    -2.8901    -0.0194 C.ar    
   9 C9             1.1648    -4.1995    -0.0299 C.ar    
  10 C10            2.5250    -4.4471    -0.0438 C.ar    
  11 N11            3.3963    -3.4565    -0.0472 N.ar    
  12 S12            2.4782     7.5122     0.0168 S.3     
  13 N13            0.9242     7.7052     0.0329 N.2     
  14 N14            0.3325     6.5800     0.0333 N.2     
  15 C15            1.0530     5.4450     0.0208 C.ar    
  16 C16            2.4311     5.7473     0.0088 C.ar    
  17 C17            3.3900     4.7480    -0.0054 C.ar    
  18 C18            3.0072     3.4373    -0.0087 C.ar    
  19 C19            1.6454     3.1040     0.0030 C.ar    
  20 C20            0.6736     4.0931     0.0177 C.ar    
  21 H21            3.7586    -1.4121    -0.0453 H       
  22 H22           -0.3421    -2.6679    -0.0081 H       
  23 H23            0.4609    -5.0187    -0.0269 H       
  24 H24            2.8797    -5.4671    -0.0520 H       
  25 H25            4.4389     5.0051    -0.0148 H       
  26 H26            3.7538     2.6570    -0.0198 H       
  27 H27           -0.3724     3.8243     0.0266 H       
@<TRIPOS>BOND
   1    1    2 1
   2    1    5 1
   3    2    3 2
   4    3    4 1
   5    3    7 1
   6    4    5 2
   7    5   19 1
   8    6    7 ar
   9    6   11 ar
  10    6   21 1
  11    7    8 ar
  12    8    9 ar
  13    8   22 1
  14    9   10 ar
  15    9   23 1
  16   10   11 ar
  17   10   24 1
  18   12   13 1
  19   12   16 1
  20   13   14 2
  21   14   15 1
  22   15   16 ar
  23   15   20 ar
  24   16   17 ar
  25   17   18 ar
  26   17   25 1
  27   18   19 ar
  28   18   26 1
  29   19   20 ar
  30   20   27 1

#	End of record

