#	Name: ASD01870324
#	Creating user name:	WinNT
#	Creation time:	15. 06. 2019 19:39

#	Modifying user name:	WinNT
#	Modification time:	15. 06. 2019 19:39

#	Program:	/corina/corina34_cracker 3.40 0067  02.08.2006

@<TRIPOS>MOLECULE
ASD01870324
  27   28    0    0    0
SMALL
NO_CHARGES


@<TRIPOS>ATOM
   1 C1            -0.0149     1.3812     0.0099 C.ar    
   2 C2             0.0048    -0.0055     0.0232 C.ar    
   3 C3             1.2088    -0.6807     0.0401 C.ar    
   4 C4             2.4054     0.0196     0.0439 C.ar    
   5 C5             2.4040     1.3984     0.0309 C.ar    
   6 C6             1.1920     2.0934     0.0132 C.ar    
   7 C7             1.1829     3.5684    -0.0013 C.2     
   8 O8             0.1261     4.1698    -0.0162 O.2     
   9 N9             2.3459     4.2495     0.0020 N.am    
  10 C10            2.3396     5.6455    -0.0966 C.ar    
  11 C11            1.2269     7.7453     0.2255 C.ar    
  12 C12            1.2306     6.3673     0.3234 C.ar    
  13 C13            3.4459     6.3125    -0.6098 C.ar    
  14 C14            3.4366     7.6909    -0.7053 C.ar    
  15 C15            2.3271     8.4068    -0.2905 C.ar    
  16 Cl16           2.3180    10.1385    -0.4128 Cl      
  17 Cl17           3.9117    -0.8431     0.0658 Cl      
  18 Cl18           4.8379     5.4147    -1.1295 Cl      
  19 O19           -1.1977     2.0455    -0.0119 O.3     
  20 H20           -0.9232    -0.5580     0.0207 H       
  21 H21            1.2187    -1.7606     0.0507 H       
  22 H22            3.3382     1.9403     0.0346 H       
  23 H23            3.1874     3.7721     0.0727 H       
  24 H24            0.3642     8.3069     0.5522 H       
  25 H25            0.3711     5.8518     0.7259 H       
  26 H26            4.2959     8.2100    -1.1035 H       
  27 H27           -1.5523     2.2464     0.8651 H       
@<TRIPOS>BOND
   1    1    2 ar
   2    1    6 ar
   3    1   19 1
   4    2    3 ar
   5    2   20 1
   6    3    4 ar
   7    3   21 1
   8    4    5 ar
   9    4   17 1
  10    5    6 ar
  11    5   22 1
  12    6    7 1
  13    7    8 2
  14    7    9 am
  15    9   10 1
  16    9   23 1
  17   10   13 ar
  18   10   12 ar
  19   11   12 ar
  20   11   15 ar
  21   11   24 1
  22   12   25 1
  23   13   14 ar
  24   13   18 1
  25   14   15 ar
  26   14   26 1
  27   15   16 1
  28   19   27 1

#	End of record

