#	Name: ASD01884974
#	Creating user name:	WinNT
#	Creation time:	15. 06. 2019 19:49

#	Modifying user name:	WinNT
#	Modification time:	15. 06. 2019 19:49

#	Program:	/corina/corina34_cracker 3.40 0067  02.08.2006

@<TRIPOS>MOLECULE
ASD01884974
  49   53    0    0    0
SMALL
NO_CHARGES


@<TRIPOS>ATOM
   1 C1            -0.0166     1.3739     0.0096 C.ar    
   2 C2             0.0021    -0.0041     0.0020 C.ar    
   3 C3             1.2204    -0.6839    -0.0132 C.ar    
   4 C4             2.4169     0.0336    -0.0208 C.ar    
   5 C5             2.3928     1.4115    -0.0132 C.ar    
   6 C6             1.1773     2.0867     0.0020 C.ar    
   7 C7             1.2434    -2.1650    -0.0209 C.2     
   8 C8             1.7483    -2.8502    -1.1115 C.2     
   9 C9             0.7541    -2.8937     1.0906 C.2     
  10 C10            0.7768    -4.2394     1.0821 C.2     
  11 N11            1.2688    -4.9246     0.0081 N.pl3   
  12 C12            1.7569    -4.2562    -1.0885 C.2     
  13 Cl13           2.3613    -1.9876    -2.4876 Cl      
  14 C14            1.4124    -6.2498    -0.2703 C.2     
  15 N15            1.9477    -6.3468    -1.4599 N.2     
  16 N16            2.1563    -5.1767    -1.9527 N.2     
  17 C17            1.0251    -7.3958     0.6283 C.3     
  18 C18            1.0860    -8.8068     0.0398 C.3     
  19 C19            2.1321    -8.3586     1.0623 C.3     
  20 N20            1.1556     3.4817     0.0097 N.pl3   
  21 C21           -0.1243     4.1944     0.0257 C.3     
  22 C22            0.1280     5.6801     0.0313 C.ar    
  23 C23            0.2341     6.3780    -1.1636 C.ar    
  24 C24            0.2506     6.3627     1.2254 C.ar    
  25 N25            0.4711     7.6633     1.2413 N.ar    
  26 C26            0.5835     8.3619     0.1237 C.ar    
  27 C27            0.4662     7.7417    -1.1133 C.ar    
  28 O28            0.8104     9.6981     0.1865 O.3     
  29 C29            0.9156    10.2778     1.4884 C.3     
  30 H30           -0.9594     1.9007     0.0169 H       
  31 H31           -0.9255    -0.5572     0.0082 H       
  32 H32            3.3612    -0.4904    -0.0322 H       
  33 H33            3.3187     1.9674    -0.0186 H       
  34 H34            0.3618    -2.3676     1.9484 H       
  35 H35            0.4013    -4.7844     1.9356 H       
  36 H36            0.2329    -7.1834     1.3462 H       
  37 H37            0.3336    -9.5229     0.3704 H       
  38 H38            1.4062    -8.9061    -0.9973 H       
  39 H39            3.1406    -8.1631     0.6979 H       
  40 H40            2.0681    -8.7798     2.0656 H       
  41 H41            1.9880     3.9798     0.0045 H       
  42 H42           -0.7001     3.9269    -0.8603 H       
  43 H43           -0.6832     3.9174     0.9196 H       
  44 H44            0.1380     5.8687    -2.1111 H       
  45 H45            0.1644     5.8250     2.1582 H       
  46 H46            0.5585     8.3150    -2.0239 H       
  47 H47           -0.0123    10.1122     2.0360 H       
  48 H48            1.7426     9.8147     2.0266 H       
  49 H49            1.0966    11.3487     1.3958 H       
@<TRIPOS>BOND
   1    1    2 ar
   2    1    6 ar
   3    1   30 1
   4    2    3 ar
   5    2   31 1
   6    3    4 ar
   7    3    7 1
   8    4    5 ar
   9    4   32 1
  10    5    6 ar
  11    5   33 1
  12    6   20 1
  13    7    8 2
  14    7    9 1
  15    8   13 1
  16    8   12 1
  17    9   10 2
  18    9   34 1
  19   10   11 1
  20   10   35 1
  21   11   12 1
  22   11   14 1
  23   12   16 2
  24   14   15 2
  25   14   17 1
  26   15   16 1
  27   17   19 1
  28   17   18 1
  29   17   36 1
  30   18   19 1
  31   18   37 1
  32   18   38 1
  33   19   39 1
  34   19   40 1
  35   20   21 1
  36   20   41 1
  37   21   22 1
  38   21   42 1
  39   21   43 1
  40   22   23 ar
  41   22   24 ar
  42   23   27 ar
  43   23   44 1
  44   24   25 ar
  45   24   45 1
  46   25   26 ar
  47   26   27 ar
  48   26   28 1
  49   27   46 1
  50   28   29 1
  51   29   47 1
  52   29   48 1
  53   29   49 1

#	End of record

