#	Name: ASD01411027
#	Creating user name:	WinNT
#	Creation time:	15. 06. 2019 19:19

#	Modifying user name:	WinNT
#	Modification time:	15. 06. 2019 19:19

#	Program:	/corina/corina34_cracker 3.40 0067  02.08.2006

@<TRIPOS>MOLECULE
ASD01411027
  30   31    0    0    0
SMALL
NO_CHARGES


@<TRIPOS>ATOM
   1 N1            -0.0840     1.4691    -0.6697 N.am    
   2 C2            -0.0534     0.1456    -0.8628 C.2     
   3 S3            -1.7044    -0.4499    -0.6173 S.3     
   4 C4            -2.3803     1.1510    -0.2561 C.2     
   5 C5            -1.2264     2.0555    -0.3530 C.2     
   6 O6            -1.3166     3.2541    -0.1641 O.2     
   7 O7             0.9216    -0.5216    -1.1518 O.2     
   8 C8             1.1404     2.2624    -0.8022 C.3     
   9 C9            -3.6643     1.4659     0.0444 C.2     
  10 C10           -4.7160     0.4442    -0.0621 C.ar    
  11 C11           -5.9213     0.6006     0.6312 C.ar    
  12 C12           -6.9027    -0.3619     0.5257 C.ar    
  13 C13           -6.6980    -1.4809    -0.2630 C.ar    
  14 C14           -5.5085    -1.6431    -0.9520 C.ar    
  15 C15           -4.5193    -0.6870    -0.8618 C.ar    
  16 C16            1.2843     2.7299    -2.2276 C.2     
  17 O17            0.4497     2.4311    -3.0486 O.2     
  18 O18            2.3397     3.4783    -2.5852 O.3     
  19 C19           -7.7759    -2.5284    -0.3717 C.3     
  20 F20           -8.6229    -2.2168    -1.4407 F       
  21 F21           -7.1897    -3.7797    -0.5907 F       
  22 F22           -8.5156    -2.5613     0.8152 F       
  23 H23            1.0869     3.1266    -0.1401 H       
  24 H24            2.0009     1.6503    -0.5320 H       
  25 H25           -3.9145     2.4674     0.3619 H       
  26 H26           -6.0823     1.4727     1.2475 H       
  27 H27           -7.8336    -0.2428     1.0601 H       
  28 H28           -5.3565    -2.5190    -1.5653 H       
  29 H29           -3.5919    -0.8149    -1.4002 H       
  30 H30            2.3888     3.7543    -3.5107 H       
@<TRIPOS>BOND
   1    1    2 am
   2    1    8 1
   3    1    5 am
   4    2    3 1
   5    2    7 2
   6    3    4 1
   7    4    5 1
   8    4    9 2
   9    5    6 2
  10    8   16 1
  11    8   23 1
  12    8   24 1
  13    9   10 1
  14    9   25 1
  15   10   11 ar
  16   10   15 ar
  17   11   12 ar
  18   11   26 1
  19   12   13 ar
  20   12   27 1
  21   13   14 ar
  22   13   19 1
  23   14   15 ar
  24   14   28 1
  25   15   29 1
  26   16   17 2
  27   16   18 1
  28   18   30 1
  29   19   20 1
  30   19   21 1
  31   19   22 1

#	End of record

