#	Name: ASD08170115
#	Creating user name:	WinNT
#	Creation time:	15. 06. 2019 21:17

#	Modifying user name:	WinNT
#	Modification time:	15. 06. 2019 21:17

#	Program:	/corina/corina34_cracker 3.40 0067  02.08.2006

@<TRIPOS>MOLECULE
ASD08170115
  75   78    0    0    0
SMALL
NO_CHARGES


@<TRIPOS>ATOM
   1 C1             0.5670     2.6503    -0.2842 C.3     
   2 C2             0.6514     1.1293    -0.1413 C.3     
   3 C3             1.9322     5.1376    -0.3888 C.3     
   4 C4             3.2640     5.8893    -0.3414 C.3     
   5 C5             3.0124     7.3672    -0.4949 C.2     
   6 C6            -0.7344     0.5408    -0.2078 C.2     
   7 S7             2.9602     8.2614    -2.0145 S.3     
   8 C8             2.6430     9.6975    -1.1361 C.2     
   9 N9             2.6049     9.4112     0.1302 N.2     
  10 N10            2.7901     8.2080     0.4649 N.2     
  11 S11           -1.8126     0.2607     1.1598 S.3     
  12 N12           -1.3498     0.1551    -1.2803 N.2     
  13 N13           -2.5122    -0.3131    -1.1270 N.2     
  14 C14           -2.9869    -0.3653     0.0810 C.2     
  15 N15           -4.2413    -0.8475     0.4389 N.am    
  16 C16           -5.0795    -1.3134    -0.5081 C.2     
  17 O17           -4.7400    -1.3120    -1.6724 O.2     
  18 N18            2.4576    10.9608    -1.6875 N.am    
  19 C19            2.2134    12.0166    -0.8862 C.2     
  20 C20            2.0124    13.3854    -1.4837 C.3     
  21 O21            2.1554    11.8651     0.3157 O.2     
  22 C22           -6.4388    -1.8359    -0.1202 C.3     
  23 C23            1.7576    14.3818    -0.3822 C.ar    
  24 C24           -7.1724    -2.2927    -1.3548 C.ar    
  25 C25            2.8181    15.0471     0.2052 C.ar    
  26 C26           -7.0480    -3.6004    -1.7870 C.ar    
  27 C27            2.5882    15.9608     1.2148 C.ar    
  28 C28            1.2898    16.2114     1.6402 C.ar    
  29 C29            0.2267    15.5413     1.0480 C.ar    
  30 C30            0.4633    14.6330     0.0350 C.ar    
  31 C31           -7.7189    -4.0223    -2.9180 C.ar    
  32 C32           -8.5194    -3.1314    -3.6216 C.ar    
  33 C33           -8.6422    -1.8185    -3.1847 C.ar    
  34 C34           -7.9730    -1.4047    -2.0497 C.ar    
  35 N35           -9.1990    -3.5547    -4.7661 N.pl3   
  36 C36           -8.9680    -4.8993    -5.2999 C.3     
  37 N37            1.0536    17.1345     2.6614 N.pl3   
  38 C38            2.1801    17.7488     3.3684 C.3     
  39 S39            2.2350     3.3586    -0.2041 S.3     
  40 C40          -10.1427    -2.6540    -5.4327 C.3     
  41 C41           -0.3205    17.4885     3.0256 C.3     
  42 H42            0.1116     2.9004    -1.2425 H       
  43 H43           -0.0402     3.0581     0.5240 H       
  44 H44            1.2585     0.7215    -0.9495 H       
  45 H45            1.1067     0.8792     0.8170 H       
  46 H46            1.2909     5.4832     0.4220 H       
  47 H47            1.4427     5.3255    -1.3444 H       
  48 H48            3.7534     5.7014     0.6142 H       
  49 H49            3.9053     5.5437    -1.1523 H       
  50 H50           -4.5129    -0.8486     1.3701 H       
  51 H51            2.5039    11.0819    -2.6488 H       
  52 H52            2.9060    13.6754    -2.0364 H       
  53 H53            1.1577    13.3648    -2.1599 H       
  54 H54           -6.3232    -2.6755     0.5653 H       
  55 H55           -7.0068    -1.0439     0.3678 H       
  56 H56            3.8274    14.8516    -0.1258 H       
  57 H57           -6.4251    -4.2924    -1.2396 H       
  58 H58            3.4169    16.4798     1.6734 H       
  59 H59           -0.7840    15.7338     1.3764 H       
  60 H60           -0.3627    14.1120    -0.4261 H       
  61 H61           -7.6210    -5.0436    -3.2552 H       
  62 H62           -9.2638    -1.1234    -3.7294 H       
  63 H63           -8.0683    -0.3842    -1.7092 H       
  64 H64           -9.6721    -5.5964    -4.8457 H       
  65 H65           -9.1111    -4.8907    -6.3805 H       
  66 H66           -7.9490    -5.2111    -5.0708 H       
  67 H67            2.4742    18.6652     2.8566 H       
  68 H68            1.8833    17.9830     4.3908 H       
  69 H69            3.0210    17.0555     3.3840 H       
  70 H70          -10.2544    -1.7439    -4.8435 H       
  71 H71           -9.7656    -2.4013    -6.4237 H       
  72 H72          -11.1104    -3.1468    -5.5270 H       
  73 H73           -1.0172    16.8707     2.4589 H       
  74 H74           -0.4690    17.3189     4.0920 H       
  75 H75           -0.4979    18.5394     2.7967 H       
@<TRIPOS>BOND
   1    1    2 1
   2    1   39 1
   3    1   42 1
   4    1   43 1
   5    2    6 1
   6    2   44 1
   7    2   45 1
   8    3    4 1
   9    3   39 1
  10    3   46 1
  11    3   47 1
  12    4    5 1
  13    4   48 1
  14    4   49 1
  15    5    7 1
  16    5   10 2
  17    6   11 1
  18    6   12 2
  19    7    8 1
  20    8    9 2
  21    8   18 1
  22    9   10 1
  23   11   14 1
  24   12   13 1
  25   13   14 2
  26   14   15 1
  27   15   16 am
  28   15   50 1
  29   16   17 2
  30   16   22 1
  31   18   19 am
  32   18   51 1
  33   19   20 1
  34   19   21 2
  35   20   23 1
  36   20   52 1
  37   20   53 1
  38   22   24 1
  39   22   54 1
  40   22   55 1
  41   23   25 ar
  42   23   30 ar
  43   24   26 ar
  44   24   34 ar
  45   25   27 ar
  46   25   56 1
  47   26   31 ar
  48   26   57 1
  49   27   28 ar
  50   27   58 1
  51   28   29 ar
  52   28   37 1
  53   29   30 ar
  54   29   59 1
  55   30   60 1
  56   31   32 ar
  57   31   61 1
  58   32   33 ar
  59   32   35 1
  60   33   34 ar
  61   33   62 1
  62   34   63 1
  63   35   36 1
  64   35   40 1
  65   36   64 1
  66   36   65 1
  67   36   66 1
  68   37   38 1
  69   37   41 1
  70   38   67 1
  71   38   68 1
  72   38   69 1
  73   40   70 1
  74   40   71 1
  75   40   72 1
  76   41   73 1
  77   41   74 1
  78   41   75 1

#	End of record

