#	Name: ASD07300573
#	Creating user name:	WinNT
#	Creation time:	15. 06. 2019 21:10

#	Modifying user name:	WinNT
#	Modification time:	15. 06. 2019 21:10

#	Program:	/corina/corina34_cracker 3.40 0067  02.08.2006

@<TRIPOS>MOLECULE
ASD07300573
  52   55    0    0    0
SMALL
NO_CHARGES


@<TRIPOS>ATOM
   1 C1            -0.0173     1.4132    -0.0101 C.2     
   2 C2             0.0021    -0.0041     0.0020 C.2     
   3 N3             1.1773     2.0868    -0.0173 N.pl3   
   4 N4             1.1570    -0.6390     0.0061 N.2     
   5 C5             2.3155     0.0276    -0.0010 C.2     
   6 C6             2.3478     1.3755    -0.0122 C.2     
   7 N7            -0.9989     2.3008    -0.0112 N.2     
   8 C8            -0.4887     3.5283    -0.0252 C.2     
   9 C9             0.8861     3.4239    -0.0283 C.2     
  10 C10            3.6109    -0.7424     0.0045 C.3     
  11 F11            4.6857     0.1531    -0.0045 F       
  12 F12            3.6759    -1.5374     1.1539 F       
  13 F13            3.6736    -1.5577    -1.1306 F       
  14 N14           -1.1861    -0.7177     0.0100 N.pl3   
  15 C15           -1.1896    -2.1845    -0.1073 C.3     
  16 C16           -2.0522    -2.7579     1.0227 C.3     
  17 O17           -3.3301    -2.1170     1.0109 O.3     
  18 C18           -3.2811    -0.7092     1.2547 C.3     
  19 C19           -2.4810    -0.0314     0.1422 C.3     
  20 C20           -1.2771     4.8126    -0.0318 C.3     
  21 C21            2.9644     4.5236     0.8100 C.ar    
  22 C22            1.8561     4.5387    -0.0390 C.ar    
  23 C23            1.6795     5.6277    -0.9008 C.ar    
  24 C24            2.6168     6.6455    -0.8721 C.ar    
  25 C25            3.6877     6.5555    -0.0014 C.ar    
  26 N26            3.8288     5.5168     0.8000 N.ar    
  27 C27            4.7105     7.6617     0.0322 C.3     
  28 C28            4.8461     8.1876     1.4626 C.3     
  29 O29            5.8160     9.2367     1.4944 O.3     
  30 C30            6.0199     9.8005     2.7915 C.3     
  31 H31            3.2955     1.8936    -0.0174 H       
  32 H32           -1.6072    -2.4747    -1.0714 H       
  33 H33           -0.1709    -2.5622    -0.0194 H       
  34 H34           -2.1812    -3.8300     0.8742 H       
  35 H35           -1.5637    -2.5785     1.9805 H       
  36 H36           -4.2941    -0.3074     1.2730 H       
  37 H37           -2.7971    -0.5223     2.2133 H       
  38 H38           -2.3172     1.0161     0.3953 H       
  39 H39           -3.0310    -0.1011    -0.7963 H       
  40 H40           -1.4606     5.1315     0.9942 H       
  41 H41           -0.7120     5.5831    -0.5563 H       
  42 H42           -2.2289     4.6520    -0.5381 H       
  43 H43            3.1116     3.6924     1.4836 H       
  44 H44            0.8339     5.6723    -1.5711 H       
  45 H45            2.5133     7.5010    -1.5230 H       
  46 H46            5.6726     7.2774    -0.3064 H       
  47 H47            4.3914     8.4715    -0.6239 H       
  48 H48            3.8839     8.5720     1.8011 H       
  49 H49            5.1651     7.3778     2.1187 H       
  50 H50            5.0821    10.2182     3.1577 H       
  51 H51            6.3633     9.0241     3.4753 H       
  52 H52            6.7700    10.5891     2.7311 H       
@<TRIPOS>BOND
   1    1    2 1
   2    1    3 1
   3    1    7 2
   4    2    4 2
   5    2   14 1
   6    3    6 1
   7    3    9 1
   8    4    5 1
   9    5    6 2
  10    5   10 1
  11    6   31 1
  12    7    8 1
  13    8    9 2
  14    8   20 1
  15    9   22 1
  16   10   11 1
  17   10   12 1
  18   10   13 1
  19   14   15 1
  20   14   19 1
  21   15   16 1
  22   15   32 1
  23   15   33 1
  24   16   17 1
  25   16   34 1
  26   16   35 1
  27   17   18 1
  28   18   19 1
  29   18   36 1
  30   18   37 1
  31   19   38 1
  32   19   39 1
  33   20   40 1
  34   20   41 1
  35   20   42 1
  36   21   22 ar
  37   21   26 ar
  38   21   43 1
  39   22   23 ar
  40   23   24 ar
  41   23   44 1
  42   24   25 ar
  43   24   45 1
  44   25   26 ar
  45   25   27 1
  46   27   28 1
  47   27   46 1
  48   27   47 1
  49   28   29 1
  50   28   48 1
  51   28   49 1
  52   29   30 1
  53   30   50 1
  54   30   51 1
  55   30   52 1

#	End of record

