#	Name: ASD01901030
#	Creating user name:	WinNT
#	Creation time:	15. 06. 2019 19:53

#	Modifying user name:	WinNT
#	Modification time:	15. 06. 2019 19:53

#	Program:	/corina/corina34_cracker 3.40 0067  02.08.2006

@<TRIPOS>MOLECULE
ASD01901030
  27   28    0    0    0
SMALL
NO_CHARGES


@<TRIPOS>ATOM
   1 C1             0.0021    -0.0041     0.0020 C.1     
   2 C2            -0.0173     1.4278     0.0099 C.ar    
   3 C3             1.1840     2.1430     0.0023 C.ar    
   4 C4             1.1660     3.5089     0.0098 C.ar    
   5 C5            -0.0548     4.1921     0.0246 C.ar    
   6 C6            -1.2567     3.4759     0.0318 C.ar    
   7 C7            -1.2377     2.1101     0.0194 C.ar    
   8 N8             0.0175    -1.1399    -0.0042 N.1     
   9 C9            -0.0748     5.6642     0.0332 C.2     
  10 C10           -1.2480     6.3204     0.0475 C.2     
  11 C11           -0.1458     9.8094     0.0571 C.ar    
  12 N12           -0.1283     8.4864     0.0498 N.ar    
  13 C13           -1.2679     7.7928     0.0561 C.ar    
  14 C14           -2.4845     8.4886     0.0705 C.ar    
  15 C15           -2.4517     9.8706     0.0777 C.ar    
  16 N16           -1.2822    10.4915     0.0707 N.ar    
  17 N17            1.0542    10.4993     0.0561 N.pl3   
  18 H18            2.1264     1.6155    -0.0092 H       
  19 H19            2.0941     4.0613     0.0046 H       
  20 H20           -2.1994     4.0028     0.0436 H       
  21 H21           -2.1654     1.5572     0.0211 H       
  22 H22            0.8531     6.2169     0.0280 H       
  23 H23           -2.1758     5.7678     0.0527 H       
  24 H24           -3.4251     7.9578     0.0756 H       
  25 H25           -3.3706    10.4380     0.0884 H       
  26 H26            1.8933    10.0127     0.0502 H       
  27 H27            1.0560    11.4692     0.0614 H       
@<TRIPOS>BOND
   1    1    2 1
   2    1    8 3
   3    2    3 ar
   4    2    7 ar
   5    3    4 ar
   6    3   18 1
   7    4    5 ar
   8    4   19 1
   9    5    6 ar
  10    5    9 1
  11    6    7 ar
  12    6   20 1
  13    7   21 1
  14    9   10 2
  15    9   22 1
  16   10   13 1
  17   10   23 1
  18   11   12 ar
  19   11   16 ar
  20   11   17 1
  21   12   13 ar
  22   13   14 ar
  23   14   15 ar
  24   14   24 1
  25   15   16 ar
  26   15   25 1
  27   17   26 1
  28   17   27 1

#	End of record

