#	Name: ASD01120151
#	Creating user name:	WinNT
#	Creation time:	15. 06. 2019 18:59

#	Modifying user name:	WinNT
#	Modification time:	15. 06. 2019 18:59

#	Program:	/corina/corina34_cracker 3.40 0067  02.08.2006

@<TRIPOS>MOLECULE
ASD01120151
  30   32    0    0    0
SMALL
NO_CHARGES


@<TRIPOS>ATOM
   1 C1            -0.0588     1.4151     0.6835 C.ar    
   2 C2            -0.0454     0.0186     0.7710 C.ar    
   3 C3            -1.1971    -0.7016     0.6578 C.ar    
   4 C4            -2.4149    -0.0405     0.4509 C.ar    
   5 C5            -2.4353     1.3731     0.3614 C.ar    
   6 C6            -1.2433     2.0946     0.4858 C.ar    
   7 N7            -3.5726    -0.7096     0.3333 N.ar    
   8 C8            -4.6975    -0.0640     0.1396 C.ar    
   9 N9            -4.7651     1.2550     0.0495 N.ar    
  10 C10           -3.6815     2.0126     0.1516 C.ar    
  11 C11           -6.1145     3.4532     0.6106 C.ar    
  12 C12           -5.0158     4.0060    -0.0348 C.ar    
  13 C13           -5.1617     5.1754    -0.7702 C.ar    
  14 C14           -6.3987     5.7848    -0.8574 C.ar    
  15 C15           -7.4910     5.2313    -0.2125 C.ar    
  16 C16           -7.3483     4.0677     0.5204 C.ar    
  17 N17            1.1375     2.1284     0.8032 N.pl3   
  18 N18           -3.7658     3.3871     0.0558 N.pl3   
  19 Br19          -6.5991     7.3768    -1.8580 Br      
  20 Cl20           1.4594    -0.8084     1.0267 Cl      
  21 H21           -1.1709    -1.7791     0.7271 H       
  22 H22           -1.2489     3.1725     0.4190 H       
  23 H23           -5.6102    -0.6343     0.0491 H       
  24 H24           -6.0050     2.5417     1.1793 H       
  25 H25           -4.3093     5.6079    -1.2729 H       
  26 H26           -8.4569     5.7095    -0.2817 H       
  27 H27           -8.2026     3.6383     1.0224 H       
  28 H28            1.9721     1.6552     0.9462 H       
  29 H29            1.1330     3.0965     0.7432 H       
  30 H30           -2.9576     3.9234     0.0515 H       
@<TRIPOS>BOND
   1    1    2 ar
   2    1   17 1
   3    1    6 ar
   4    2    3 ar
   5    2   20 1
   6    3    4 ar
   7    3   21 1
   8    4    5 ar
   9    4    7 ar
  10    5    6 ar
  11    5   10 ar
  12    6   22 1
  13    7    8 ar
  14    8    9 ar
  15    8   23 1
  16    9   10 ar
  17   10   18 1
  18   11   12 ar
  19   11   16 ar
  20   11   24 1
  21   12   13 ar
  22   12   18 1
  23   13   14 ar
  24   13   25 1
  25   14   15 ar
  26   14   19 1
  27   15   16 ar
  28   15   26 1
  29   16   27 1
  30   17   28 1
  31   17   29 1
  32   18   30 1

#	End of record

