#	Name: ASD01901122
#	Creating user name:	WinNT
#	Creation time:	15. 06. 2019 19:53

#	Modifying user name:	WinNT
#	Modification time:	15. 06. 2019 19:53

#	Program:	/corina/corina34_cracker 3.40 0067  02.08.2006

@<TRIPOS>MOLECULE
ASD01901122
  58   62    0    0    0
SMALL
NO_CHARGES


@<TRIPOS>ATOM
   1 C1             0.3600     1.2218     0.5713 C.ar    
   2 C2             0.4389    -0.1549     0.5378 C.ar    
   3 C3             1.6342    -0.7837     0.2261 C.ar    
   4 C4             2.7665    -0.0417    -0.0502 C.ar    
   5 C5             2.7051     1.3412    -0.0184 C.ar    
   6 C6             1.4917     1.9824     0.2877 C.ar    
   7 N7             3.8217     2.1294    -0.2735 N.pl3   
   8 C8             3.6274     3.4728    -0.8307 C.3     
   9 N9             2.5197     4.1475    -0.1529 N.am    
  10 C10            1.4594     3.4552     0.3088 C.2     
  11 C11            2.5621     5.5347     0.0187 C.ar    
  12 C12            1.8123     6.3605    -0.8076 C.ar    
  13 C13            1.8569     7.7347    -0.6344 C.ar    
  14 C14            2.6506     8.2821     0.3642 C.ar    
  15 C15            3.3963     7.4587     1.1858 C.ar    
  16 C16            3.3501     6.0878     1.0200 C.ar    
  17 O17            0.4845     4.0412     0.7391 O.2     
  18 C18            4.9108     4.2875    -0.6441 C.3     
  19 C19            3.3180     3.3608    -2.3262 C.3     
  20 C20            3.1850     4.7648    -2.9205 C.3     
  21 N21            4.4360     5.5057    -2.7159 N.3     
  22 C22            4.7316     5.6651    -1.2863 C.3     
  23 C23            4.3928     6.8087    -3.3930 C.3     
  24 C24            4.3444     6.5984    -4.8845 C.ar    
  25 C25            3.1462     6.7253    -5.5618 C.ar    
  26 C26            3.1016     6.5322    -6.9308 C.ar    
  27 C27            4.2567     6.2120    -7.6223 C.ar    
  28 C28            5.4545     6.0851    -6.9452 C.ar    
  29 C29            5.5001     6.2839    -5.5766 C.ar    
  30 O30            1.1244     8.5459    -1.4420 O.3     
  31 C31            1.2186     9.9522    -1.2066 C.3     
  32 Cl32           7.0063     6.1316    -4.7270 Cl      
  33 Cl33           1.5966     6.6910    -7.7813 Cl      
  34 H34           -0.5746     1.7069     0.8115 H       
  35 H35           -0.4372    -0.7474     0.7566 H       
  36 H36            1.6809    -1.8624     0.1992 H       
  37 H37            3.6953    -0.5381    -0.2895 H       
  38 H38            4.7135     1.7971    -0.0861 H       
  39 H39            1.1956     5.9328    -1.5843 H       
  40 H40            2.6856     9.3531     0.4988 H       
  41 H41            4.0132     7.8873     1.9617 H       
  42 H42            3.9302     5.4462     1.6667 H       
  43 H43            5.1154     4.4057     0.4200 H       
  44 H44            5.7432     3.7694    -1.1202 H       
  45 H45            4.1274     2.8290    -2.8265 H       
  46 H46            2.3837     2.8168    -2.4649 H       
  47 H47            2.9782     4.6892    -3.9880 H       
  48 H48            2.3668     5.2911    -2.4288 H       
  49 H49            3.9072     6.1875    -0.8010 H       
  50 H50            5.6479     6.2432    -1.1672 H       
  51 H51            3.5050     7.3547    -3.0741 H       
  52 H52            5.2837     7.3815    -3.1356 H       
  53 H53            2.2446     6.9748    -5.0220 H       
  54 H54            4.2219     6.0609    -8.6911 H       
  55 H55            6.3559     5.8348    -7.4849 H       
  56 H56            2.2530    10.2727    -1.3300 H       
  57 H57            0.5863    10.4829    -1.9184 H       
  58 H58            0.8882    10.1736    -0.1917 H       
@<TRIPOS>BOND
   1    1    2 ar
   2    1    6 ar
   3    1   34 1
   4    2    3 ar
   5    2   35 1
   6    3    4 ar
   7    3   36 1
   8    4    5 ar
   9    4   37 1
  10    5    7 1
  11    5    6 ar
  12    6   10 1
  13    7    8 1
  14    7   38 1
  15    8    9 1
  16    8   19 1
  17    8   18 1
  18    9   10 am
  19    9   11 1
  20   10   17 2
  21   11   12 ar
  22   11   16 ar
  23   12   13 ar
  24   12   39 1
  25   13   14 ar
  26   13   30 1
  27   14   15 ar
  28   14   40 1
  29   15   16 ar
  30   15   41 1
  31   16   42 1
  32   18   22 1
  33   18   43 1
  34   18   44 1
  35   19   20 1
  36   19   45 1
  37   19   46 1
  38   20   21 1
  39   20   47 1
  40   20   48 1
  41   21   22 1
  42   21   23 1
  43   22   49 1
  44   22   50 1
  45   23   24 1
  46   23   51 1
  47   23   52 1
  48   24   25 ar
  49   24   29 ar
  50   25   26 ar
  51   25   53 1
  52   26   27 ar
  53   26   33 1
  54   27   28 ar
  55   27   54 1
  56   28   29 ar
  57   28   55 1
  58   29   32 1
  59   30   31 1
  60   31   56 1
  61   31   57 1
  62   31   58 1

#	End of record

