#	Name: ASD03730579
#	Creating user name:	WinNT
#	Creation time:	15. 06. 2019 20:44

#	Modifying user name:	WinNT
#	Modification time:	15. 06. 2019 20:44

#	Program:	/corina/corina34_cracker 3.40 0067  02.08.2006

@<TRIPOS>MOLECULE
ASD03730579
  66   73    0    0    0
SMALL
NO_CHARGES


@<TRIPOS>ATOM
   1 O1            -0.2805     1.2811     0.6495 O.3     
   2 C2            -0.2392    -0.1577     0.6838 C.3     
   3 O3             0.9290    -0.4853    -0.0913 O.3     
   4 C4             1.7596     0.5923     0.0270 C.ar    
   5 C5             1.0148     1.6788     0.4801 C.ar    
   6 C6             3.1136     0.7356    -0.2173 C.ar    
   7 C7             3.7402     1.9619    -0.0167 C.ar    
   8 C8             2.9835     3.0432     0.4246 C.ar    
   9 C9             1.6347     2.9015     0.6758 C.ar    
  10 O10            5.0498     2.3079    -0.1762 O.3     
  11 C11            3.9224     4.2165     0.5126 C.3     
  12 C12            5.1541     3.7416    -0.2707 C.3     
  13 N13            3.3431     6.3935     0.8960 N.am    
  14 C14            3.3309     5.4634    -0.0796 C.2     
  15 C15            4.2628     4.5723     1.9290 C.ar    
  16 C16            4.8294     3.8711     2.9849 C.ar    
  17 C17            5.0208     4.5032     4.2134 C.ar    
  18 C18            4.6448     5.8225     4.3702 C.ar    
  19 C19            4.0816     6.5188     3.3201 C.ar    
  20 C20            3.8844     5.9008     2.0863 C.ar    
  21 O21            2.9231     5.6058    -1.2130 O.2     
  22 C22            2.8465     7.7615     0.7280 C.3     
  23 C23            1.3612     7.8132     1.0913 C.3     
  24 C24            0.8426     9.2419     0.9158 C.3     
  25 C25           -0.6427     9.2935     1.2792 C.3     
  26 C26           -1.1613    10.7222     1.1037 C.3     
  27 O27            3.2757     1.4413     4.0268 O.3     
  28 C28            4.4330     1.4287     3.3312 C.ar    
  29 C29            4.8308     0.0982     3.1508 C.ar    
  30 C30            3.7953    -0.7209     3.8100 C.ar    
  31 C31            2.8648     0.1902     4.3293 C.ar    
  32 C32            6.0014    -0.1984     2.4599 C.ar    
  33 C33            6.7776     0.8218     1.9478 C.ar    
  34 C34            6.3967     2.1403     2.1185 C.ar    
  35 C35            5.2297     2.4540     2.8071 C.ar    
  36 C36            1.7574    -0.2912     5.0168 C.ar    
  37 C37            1.5829    -1.6493     5.1824 C.ar    
  38 C38            2.5043    -2.5471     4.6680 C.ar    
  39 C39            3.6099    -2.0880     3.9825 C.ar    
  40 H40           -0.1311    -0.5134     1.7085 H       
  41 H41           -1.1339    -0.5776     0.2241 H       
  42 H42            3.6882    -0.1098    -0.5657 H       
  43 H43            1.0604     3.7465     1.0260 H       
  44 H44            6.0718     4.0948     0.1996 H       
  45 H45            5.1007     4.0659    -1.3099 H       
  46 H46            5.4608     3.9629     5.0386 H       
  47 H47            4.7920     6.3127     5.3212 H       
  48 H48            3.7911     7.5501     3.4554 H       
  49 H49            3.4039     8.4331     1.3810 H       
  50 H50            2.9779     8.0710    -0.3089 H       
  51 H51            0.8038     7.1416     0.4383 H       
  52 H52            1.2298     7.5037     2.1282 H       
  53 H53            1.4000     9.9135     1.5689 H       
  54 H54            0.9740     9.5513    -0.1210 H       
  55 H55           -1.2001     8.6219     0.6261 H       
  56 H56           -0.7741     8.9841     2.3160 H       
  57 H57           -1.0299    11.0317     0.0668 H       
  58 H58           -2.2195    10.7590     1.3625 H       
  59 H59           -0.6039    11.3938     1.7567 H       
  60 H60            6.3029    -1.2266     2.3245 H       
  61 H61            7.6861     0.5894     1.4121 H       
  62 H62            7.0103     2.9322     1.7148 H       
  63 H63            1.0325     0.3991     5.4222 H       
  64 H64            0.7202    -2.0164     5.7184 H       
  65 H65            2.3568    -3.6082     4.8041 H       
  66 H66            4.3284    -2.7875     3.5816 H       
@<TRIPOS>BOND
   1    1    2 1
   2    1    5 1
   3    2    3 1
   4    2   40 1
   5    2   41 1
   6    3    4 1
   7    4    5 ar
   8    4    6 ar
   9    5    9 ar
  10    6    7 ar
  11    6   42 1
  12    7    8 ar
  13    7   10 1
  14    8    9 ar
  15    8   11 1
  16    9   43 1
  17   10   12 1
  18   11   12 1
  19   11   14 1
  20   11   15 1
  21   12   44 1
  22   12   45 1
  23   13   14 am
  24   13   20 1
  25   13   22 1
  26   14   21 2
  27   15   16 ar
  28   15   20 ar
  29   16   17 ar
  30   16   35 1
  31   17   18 ar
  32   17   46 1
  33   18   19 ar
  34   18   47 1
  35   19   20 ar
  36   19   48 1
  37   22   23 1
  38   22   49 1
  39   22   50 1
  40   23   24 1
  41   23   51 1
  42   23   52 1
  43   24   25 1
  44   24   53 1
  45   24   54 1
  46   25   26 1
  47   25   55 1
  48   25   56 1
  49   26   57 1
  50   26   58 1
  51   26   59 1
  52   27   28 1
  53   27   31 1
  54   28   29 ar
  55   28   35 ar
  56   29   30 1
  57   29   32 ar
  58   30   31 ar
  59   30   39 ar
  60   31   36 ar
  61   32   33 ar
  62   32   60 1
  63   33   34 ar
  64   33   61 1
  65   34   35 ar
  66   34   62 1
  67   36   37 ar
  68   36   63 1
  69   37   38 ar
  70   37   64 1
  71   38   39 ar
  72   38   65 1
  73   39   66 1

#	End of record

