#	Name: ASD06300014
#	Creating user name:	WinNT
#	Creation time:	15. 06. 2019 21:05

#	Modifying user name:	WinNT
#	Modification time:	15. 06. 2019 21:05

#	Program:	/corina/corina34_cracker 3.40 0067  02.08.2006

@<TRIPOS>MOLECULE
ASD06300014
 259  265    0    0    0
SMALL
NO_CHARGES


@<TRIPOS>ATOM
   1 N1            -1.8170    -6.4812    -3.9374 N.am    
   2 C2            -0.3484   -20.4384    14.4230 C.3     
   3 C3             0.1424   -20.2163    13.0156 C.2     
   4 N4             0.7650   -20.8855    15.2636 N.am    
   5 O5             1.3075   -20.4122    12.7416 O.2     
   6 C6            -0.7350   -19.2546    17.4721 C.ar    
   7 C7            -1.2870   -19.4829    18.7188 C.ar    
   8 C8            -2.6189   -19.8356    18.8309 C.ar    
   9 C9            -3.3989   -19.9595    17.6964 C.ar    
  10 C10           -2.8469   -19.7316    16.4498 C.ar    
  11 C11           -1.5150   -19.3790    16.3376 C.ar    
  12 C12           -0.9134   -19.1296    14.9786 C.3     
  13 C13           -0.2270   -20.7405     9.8567 C.3     
  14 C14           -0.2163   -19.4783    10.7213 C.3     
  15 C15           -1.1021   -18.4325    10.0945 C.2     
  16 N16           -0.7135   -19.8000    12.0613 N.am    
  17 O17           -2.1927   -18.1973    10.5702 O.2     
  18 C18            0.4665   -20.4516     8.5238 C.3     
  19 C19            1.9574   -20.2086     8.7668 C.3     
  20 C20            0.2908   -21.6488     7.5875 C.3     
  21 C21           -1.2997   -15.3943     8.9045 C.3     
  22 C22           -1.5720   -16.7950     8.3524 C.3     
  23 C23           -1.3212   -16.8067     6.8665 C.2     
  24 N24           -0.6825   -17.7587     9.0054 N.am    
  25 O25           -0.5018   -17.5669     6.3957 O.2     
  26 C26           -1.6730   -15.3493    10.3876 C.3     
  27 C27           -1.4048   -13.9696    10.9314 C.2     
  28 O28           -0.9591   -13.1073    10.2044 O.2     
  29 N29           -1.6604   -13.6941    12.2257 N.am    
  30 C30           -2.7856   -16.7227     3.8667 C.3     
  31 C31           -1.7156   -15.9351     4.6255 C.3     
  32 C32           -1.7131   -14.5049     4.1505 C.2     
  33 N33           -2.0076   -15.9725     6.0606 N.am    
  34 O34           -1.9335   -13.6054     4.9336 O.2     
  35 C35           -2.7448   -18.1668     4.2953 C.2     
  36 C36           -2.0392   -19.1517     3.7173 C.2     
  37 N37           -2.2511   -20.3291     4.3815 N.pl3   
  38 C38           -3.1204   -20.1253     5.4297 C.ar    
  39 C39           -3.4628   -18.7609     5.4256 C.ar    
  40 C40           -3.6613   -20.9608     6.4017 C.ar    
  41 C41           -4.5271   -20.4462     7.3414 C.ar    
  42 C42           -4.8668   -19.1002     7.3292 C.ar    
  43 C43           -4.3363   -18.2589     6.3923 C.ar    
  44 C44           -0.0844   -12.2191     2.6377 C.3     
  45 C45           -1.4635   -12.8351     2.3936 C.3     
  46 C46           -1.7781   -12.7946     0.9204 C.2     
  47 N47           -1.4659   -14.2254     2.8554 N.am    
  48 O48           -1.9842   -13.8255     0.3157 O.2     
  49 C49            0.1825   -12.1462     4.1424 C.3     
  50 C50            1.5616   -11.5302     4.3865 C.3     
  51 C51            1.8285   -11.4573     5.8913 C.3     
  52 N52            3.1526   -10.8658     6.1256 N.3     
  53 C53           -3.6536   -11.5821    -1.3553 C.3     
  54 C54           -2.1365   -11.5733    -1.1574 C.3     
  55 C55           -1.5586   -10.3188    -1.7602 C.2     
  56 N56           -1.8306   -11.6127     0.2748 N.am    
  57 O57           -0.9510    -9.5348    -1.0622 O.2     
  58 C58           -4.2168   -12.8904    -0.8632 C.2     
  59 C59           -4.4711   -13.9798    -1.6052 C.2     
  60 N60           -4.9772   -14.9751    -0.8143 N.pl3   
  61 C61           -5.0630   -14.5394     0.4890 C.ar    
  62 C62           -4.5847   -13.2168     0.5167 C.ar    
  63 C63           -5.4972   -15.1320     1.6705 C.ar    
  64 C64           -5.4598   -14.4180     2.8479 C.ar    
  65 C65           -4.9927   -13.1108     2.8689 C.ar    
  66 C66           -4.5483   -12.5142     1.7228 C.ar    
  67 C67           -0.9071    -9.0679    -5.1546 C.3     
  68 C68           -1.1551    -8.8485    -3.6609 C.3     
  69 C69           -2.1238    -7.7093    -3.4745 C.2     
  70 N70           -1.7169   -10.0681    -3.0749 N.am    
  71 O71           -3.1795    -7.8975    -2.9080 O.2     
  72 C72            0.1690   -10.1394    -5.3410 C.3     
  73 C73            0.3286   -10.4482    -6.8310 C.3     
  74 C74            1.4984    -9.6300    -4.7805 C.3     
  75 C75           -0.6585   -27.8169    24.9119 C.2     
  76 N76           -3.0689   -27.9914    24.6920 N.am    
  77 C77           -1.9666   -27.0725    24.9867 C.3     
  78 C78           -2.1456   -26.4957    26.3925 C.3     
  79 C79           -3.4109   -25.6365    26.4339 C.3     
  80 C80           -3.5898   -25.0596    27.8397 C.3     
  81 C81           -4.8551   -24.2004    27.8811 C.3     
  82 O82           -0.6500   -29.0247    24.9117 O.2     
  83 O83           -7.9336   -29.2668    24.0638 O.2     
  84 C84           -7.7588   -28.1948    23.5242 C.2     
  85 C85           -8.9363   -27.4146    22.9990 C.3     
  86 C86           -4.9169   -29.4745    22.8520 C.3     
  87 C87           -5.3667   -28.4596    23.9048 C.3     
  88 C88           -4.2328   -27.5143    24.2080 C.2     
  89 N89           -6.5114   -27.7012    23.3942 N.am    
  90 O90           -4.3676   -26.3244    24.0164 O.2     
  91 O91           -4.4288   -28.7824    21.7010 O.3     
  92 C92           -0.0158   -23.1124    21.1251 C.3     
  93 C93            1.3225   -23.7068    20.6816 C.3     
  94 C94            1.8592   -22.9201    19.5137 C.2     
  95 N95            2.2763   -23.6447    21.7918 N.am    
  96 O96            2.9327   -22.3624    19.6002 O.2     
  97 C97            0.1844   -21.6771    21.5385 C.2     
  98 O98            1.2703   -21.1605    21.4212 O.2     
  99 O99           -0.8437   -20.9727    22.0370 O.3     
 100 C100           3.3022   -24.5882    23.8353 C.3     
 101 C101           2.2512   -24.5868    22.7553 C.2     
 102 N102           3.0112   -25.6569    24.8004 N.3     
 103 O103           1.3827   -25.4334    22.7532 O.2     
 104 C104           6.1766   -25.8133    24.9537 C.ar    
 105 C105           7.1533   -25.6919    25.9243 C.ar    
 106 C106           7.6952   -24.4522    26.2083 C.ar    
 107 C107           7.2607   -23.3342    25.5213 C.ar    
 108 C108           6.2836   -23.4555    24.5510 C.ar    
 109 C109           5.7417   -24.6951    24.2670 C.ar    
 110 C110           4.6772   -24.8276    23.2086 C.3     
 111 C111           2.6054   -22.9567    16.4140 C.3     
 112 C112           1.6680   -22.0714    17.2376 C.3     
 113 C113           0.5226   -21.6115    16.3729 C.2     
 114 N114           1.1462   -22.8362    18.3730 N.am    
 115 O115          -0.6172   -21.8947    16.6753 O.2     
 116 N116           5.9422   -24.5562    17.2342 N.pl3   
 117 C117           6.9294   -25.3505    16.7006 C.2     
 118 N118           7.9736   -25.6613    17.4161 N.2     
 119 N119           6.8151   -25.8170    15.4124 N.pl3   
 120 C120           3.8311   -23.3216    17.2538 C.3     
 121 C121           4.7685   -24.2069    16.4301 C.3     
 122 C122           1.9297   -27.8091    24.7637 C.3     
 123 C123           0.6215   -27.0647    24.8385 C.2     
 124 N124           2.9464   -26.9511    24.1408 N.3     
 125 O125           0.6131   -25.8569    24.8387 O.2     
 126 C126           4.8673   -28.4666    26.2388 C.ar    
 127 C127           6.0045   -29.2489    26.1637 C.ar    
 128 C128           5.8944   -30.6090    25.9426 C.ar    
 129 C129           4.6471   -31.1869    25.7970 C.ar    
 130 C130           3.5099   -30.4045    25.8716 C.ar    
 131 C131           3.6200   -29.0444    26.0927 C.ar    
 132 C132           2.3802   -28.1916    26.1750 C.3     
 133 H133          -0.9726    -6.3307    -4.3905 H       
 134 H134          -2.4422    -5.7488    -3.8209 H       
 135 H135          -1.1294   -21.1988    14.4197 H       
 136 H136           1.6767   -20.6590    15.0218 H       
 137 H137           0.3044   -18.9747    17.3848 H       
 138 H138          -0.6775   -19.3861    19.6051 H       
 139 H139          -3.0499   -20.0147    19.8048 H       
 140 H140          -4.4393   -20.2357    17.7840 H       
 141 H141          -3.4562   -19.8288    15.5634 H       
 142 H142          -0.1121   -18.3957    15.0651 H       
 143 H143          -1.6820   -18.7507    14.3050 H       
 144 H144           0.3013   -21.5406    10.3752 H       
 145 H145          -1.2570   -21.0455     9.6717 H       
 146 H146           0.8019   -19.0960    10.7936 H       
 147 H147          -1.6586   -19.7134    12.2617 H       
 148 H148           0.0235   -19.5660     8.0682 H       
 149 H149           2.4158   -21.1191     9.1527 H       
 150 H150           2.4376   -19.9293     7.8290 H       
 151 H151           2.0810   -19.4042     9.4919 H       
 152 H152          -0.7657   -21.7718     7.3492 H       
 153 H153           0.8528   -21.4775     6.6693 H       
 154 H154           0.6603   -22.5500     8.0768 H       
 155 H155          -0.2421   -15.1573     8.7887 H       
 156 H156          -1.8975   -14.6655     8.3571 H       
 157 H157          -2.6091   -17.0674     8.5480 H       
 158 H158           0.2085   -17.9118     8.6538 H       
 159 H159          -2.7306   -15.5863    10.5035 H       
 160 H160          -1.0753   -16.0781    10.9350 H       
 161 H161          -2.0169   -14.3838    12.8072 H       
 162 H162          -1.4878   -12.8060    12.5758 H       
 163 H163          -3.7683   -16.3058     4.0871 H       
 164 H164          -2.5946   -16.6560     2.7956 H       
 165 H165          -0.7379   -16.3806     4.4419 H       
 166 H166          -2.6949   -15.3968     6.4309 H       
 167 H167          -1.3995   -19.0326     2.8553 H       
 168 H168          -1.8492   -21.1806     4.1484 H       
 169 H169          -3.4035   -22.0094     6.4193 H       
 170 H170          -4.9463   -21.0965     8.0949 H       
 171 H171          -5.5474   -18.7127     8.0729 H       
 172 H172          -4.6035   -17.2125     6.3903 H       
 173 H173           0.6784   -12.8361     2.1628 H       
 174 H174          -0.0549   -11.2150     2.2144 H       
 175 H175          -2.2165   -12.2689     2.9417 H       
 176 H176          -1.2896   -14.9448     2.2291 H       
 177 H177          -0.5803   -11.5292     4.6173 H       
 178 H178           0.1530   -13.1503     4.5657 H       
 179 H179           2.3244   -12.1472     3.9116 H       
 180 H180           1.5911   -10.5261     3.9633 H       
 181 H181           1.0657   -10.8403     6.3662 H       
 182 H182           1.7990   -12.4614     6.3146 H       
 183 H183           3.2269    -9.9603     5.6868 H       
 184 H184           3.3527   -10.8068     7.1128 H       
 185 H185          -4.0982   -10.7608    -0.7932 H       
 186 H186          -3.8826   -11.4634    -2.4143 H       
 187 H187          -1.7013   -12.4450    -1.6460 H       
 188 H188          -1.6659   -10.7881     0.7584 H       
 189 H189          -4.3019   -14.0588    -2.6689 H       
 190 H190          -5.2370   -15.8564    -1.1254 H       
 191 H191          -5.8626   -16.1483     1.6644 H       
 192 H192          -5.7976   -14.8797     3.7640 H       
 193 H193          -4.9703   -12.5648     3.8004 H       
 194 H194          -4.1843   -11.4977     1.7471 H       
 195 H195          -1.8310    -9.3939    -5.6323 H       
 196 H196          -0.5731    -8.1348    -5.6084 H       
 197 H197          -0.2132    -8.6089    -3.1675 H       
 198 H198          -2.2029   -10.6951    -3.6332 H       
 199 H199          -0.1251   -11.0457    -4.8116 H       
 200 H200           0.6227    -9.5419    -7.3604 H       
 201 H201           1.0952   -11.2116    -6.9638 H       
 202 H202          -0.6185   -10.8111    -7.2303 H       
 203 H203           1.3847    -9.4100    -3.7190 H       
 204 H204           2.2650   -10.3934    -4.9132 H       
 205 H205           1.7925    -8.7238    -5.3099 H       
 206 H206          -2.9611   -28.9431    24.8451 H       
 207 H207          -1.9652   -26.2614    24.2586 H       
 208 H208          -2.2360   -27.3105    27.1108 H       
 209 H209          -1.2812   -25.8820    26.6461 H       
 210 H210          -3.3204   -24.8216    25.7156 H       
 211 H211          -4.2753   -26.2502    26.1803 H       
 212 H212          -3.6802   -25.8745    28.5580 H       
 213 H213          -2.7254   -24.4459    28.0933 H       
 214 H214          -5.7195   -24.8141    27.6275 H       
 215 H215          -4.9826   -23.7895    28.8826 H       
 216 H216          -4.7647   -23.3856    27.1628 H       
 217 H217          -9.3124   -26.7544    23.7805 H       
 218 H218          -8.6245   -26.8203    22.1402 H       
 219 H219          -9.7238   -28.1050    22.6965 H       
 220 H220          -4.1238   -30.0984    23.2642 H       
 221 H221          -5.7618   -30.1017    22.5676 H       
 222 H222          -5.6555   -28.9844    24.8154 H       
 223 H223          -6.3716   -26.8438    22.9626 H       
 224 H224          -4.1257   -29.3648    20.9910 H       
 225 H225          -0.7249   -23.1569    20.2984 H       
 226 H226          -0.4049   -23.6826    21.9686 H       
 227 H227           1.1780   -24.7455    20.3844 H       
 228 H228           2.9259   -22.9256    21.8335 H       
 229 H229          -0.6668   -20.0558    22.2882 H       
 230 H230           3.2987   -23.6258    24.3470 H       
 231 H231           3.6902   -25.6650    25.5466 H       
 232 H232           5.7564   -26.7824    24.7287 H       
 233 H233           7.4928   -26.5654    26.4610 H       
 234 H234           8.4578   -24.3573    26.9671 H       
 235 H235           7.6835   -22.3656    25.7436 H       
 236 H236           5.9438   -22.5819    24.0145 H       
 237 H237           4.7123   -25.8298    22.7814 H       
 238 H238           4.8518   -24.0917    22.4236 H       
 239 H239           2.0816   -23.8667    16.1211 H       
 240 H240           2.9236   -22.4176    15.5217 H       
 241 H241           2.2168   -21.2043    17.6051 H       
 242 H242           0.2876   -23.2822    18.3038 H       
 243 H243           6.0228   -24.2271    18.1431 H       
 244 H244           8.6702   -26.2217    17.0396 H       
 245 H245           6.0380   -25.5857    14.8800 H       
 246 H246           7.5116   -26.3774    15.0359 H       
 247 H247           4.3548   -22.4116    17.5466 H       
 248 H248           3.5129   -23.8608    18.1460 H       
 249 H249           5.0868   -23.6677    15.5379 H       
 250 H250           4.2448   -25.1169    16.1373 H       
 251 H251           1.8005   -28.7117    24.1664 H       
 252 H252           2.7737   -26.8450    23.1524 H       
 253 H253           4.9531   -27.4047    26.4160 H       
 254 H254           6.9790   -28.7974    26.2774 H       
 255 H255           6.7829   -31.2201    25.8832 H       
 256 H256           4.5612   -32.2494    25.6235 H       
 257 H257           2.5355   -30.8559    25.7575 H       
 258 H258           2.5979   -27.2879    26.7443 H       
 259 H259           1.5867   -28.7509    26.6706 H       
@<TRIPOS>BOND
   1    1   69 am
   2    1  133 1
   3    1  134 1
   4    2    3 1
   5    2    4 1
   6    2   12 1
   7    2  135 1
   8    3    5 2
   9    3   16 am
  10    4  113 am
  11    4  136 1
  12    6    7 ar
  13    6   11 ar
  14    6  137 1
  15    7    8 ar
  16    7  138 1
  17    8    9 ar
  18    8  139 1
  19    9   10 ar
  20    9  140 1
  21   10   11 ar
  22   10  141 1
  23   11   12 1
  24   12  142 1
  25   12  143 1
  26   13   18 1
  27   13   14 1
  28   13  144 1
  29   13  145 1
  30   14   16 1
  31   14   15 1
  32   14  146 1
  33   15   17 2
  34   15   24 am
  35   16  147 1
  36   18   19 1
  37   18   20 1
  38   18  148 1
  39   19  149 1
  40   19  150 1
  41   19  151 1
  42   20  152 1
  43   20  153 1
  44   20  154 1
  45   21   26 1
  46   21   22 1
  47   21  155 1
  48   21  156 1
  49   22   24 1
  50   22   23 1
  51   22  157 1
  52   23   25 2
  53   23   33 am
  54   24  158 1
  55   26   27 1
  56   26  159 1
  57   26  160 1
  58   27   28 2
  59   27   29 am
  60   29  161 1
  61   29  162 1
  62   30   35 1
  63   30   31 1
  64   30  163 1
  65   30  164 1
  66   31   32 1
  67   31   33 1
  68   31  165 1
  69   32   34 2
  70   32   47 am
  71   33  166 1
  72   35   36 2
  73   35   39 1
  74   36   37 1
  75   36  167 1
  76   37   38 1
  77   37  168 1
  78   38   39 ar
  79   38   40 ar
  80   39   43 ar
  81   40   41 ar
  82   40  169 1
  83   41   42 ar
  84   41  170 1
  85   42   43 ar
  86   42  171 1
  87   43  172 1
  88   44   49 1
  89   44   45 1
  90   44  173 1
  91   44  174 1
  92   45   47 1
  93   45   46 1
  94   45  175 1
  95   46   48 2
  96   46   56 am
  97   47  176 1
  98   49   50 1
  99   49  177 1
 100   49  178 1
 101   50   51 1
 102   50  179 1
 103   50  180 1
 104   51   52 1
 105   51  181 1
 106   51  182 1
 107   52  183 1
 108   52  184 1
 109   53   58 1
 110   53   54 1
 111   53  185 1
 112   53  186 1
 113   54   55 1
 114   54   56 1
 115   54  187 1
 116   55   57 2
 117   55   70 am
 118   56  188 1
 119   58   59 2
 120   58   62 1
 121   59   60 1
 122   59  189 1
 123   60   61 1
 124   60  190 1
 125   61   62 ar
 126   61   63 ar
 127   62   66 ar
 128   63   64 ar
 129   63  191 1
 130   64   65 ar
 131   64  192 1
 132   65   66 ar
 133   65  193 1
 134   66  194 1
 135   67   72 1
 136   67   68 1
 137   67  195 1
 138   67  196 1
 139   68   70 1
 140   68   69 1
 141   68  197 1
 142   69   71 2
 143   70  198 1
 144   72   73 1
 145   72   74 1
 146   72  199 1
 147   73  200 1
 148   73  201 1
 149   73  202 1
 150   74  203 1
 151   74  204 1
 152   74  205 1
 153   75   82 2
 154   75   77 1
 155   75  123 1
 156   76   77 1
 157   76   88 am
 158   76  206 1
 159   77   78 1
 160   77  207 1
 161   78   79 1
 162   78  208 1
 163   78  209 1
 164   79   80 1
 165   79  210 1
 166   79  211 1
 167   80   81 1
 168   80  212 1
 169   80  213 1
 170   81  214 1
 171   81  215 1
 172   81  216 1
 173   83   84 2
 174   84   85 1
 175   84   89 am
 176   85  217 1
 177   85  218 1
 178   85  219 1
 179   86   91 1
 180   86   87 1
 181   86  220 1
 182   86  221 1
 183   87   89 1
 184   87   88 1
 185   87  222 1
 186   88   90 2
 187   89  223 1
 188   91  224 1
 189   92   97 1
 190   92   93 1
 191   92  225 1
 192   92  226 1
 193   93   94 1
 194   93   95 1
 195   93  227 1
 196   94   96 2
 197   94  114 am
 198   95  101 am
 199   95  228 1
 200   97   98 2
 201   97   99 1
 202   99  229 1
 203  100  101 1
 204  100  102 1
 205  100  110 1
 206  100  230 1
 207  101  103 2
 208  102  124 1
 209  102  231 1
 210  104  105 ar
 211  104  109 ar
 212  104  232 1
 213  105  106 ar
 214  105  233 1
 215  106  107 ar
 216  106  234 1
 217  107  108 ar
 218  107  235 1
 219  108  109 ar
 220  108  236 1
 221  109  110 1
 222  110  237 1
 223  110  238 1
 224  111  120 1
 225  111  112 1
 226  111  239 1
 227  111  240 1
 228  112  114 1
 229  112  113 1
 230  112  241 1
 231  113  115 2
 232  114  242 1
 233  116  121 1
 234  116  117 1
 235  116  243 1
 236  117  118 2
 237  117  119 1
 238  118  244 1
 239  119  245 1
 240  119  246 1
 241  120  121 1
 242  120  247 1
 243  120  248 1
 244  121  249 1
 245  121  250 1
 246  122  123 1
 247  122  124 1
 248  122  132 1
 249  122  251 1
 250  123  125 2
 251  124  252 1
 252  126  127 ar
 253  126  131 ar
 254  126  253 1
 255  127  128 ar
 256  127  254 1
 257  128  129 ar
 258  128  255 1
 259  129  130 ar
 260  129  256 1
 261  130  131 ar
 262  130  257 1
 263  131  132 1
 264  132  258 1
 265  132  259 1

#	End of record

