#	Name: ASD01940040
#	Creating user name:	WinNT
#	Creation time:	15. 06. 2019 20:11

#	Modifying user name:	WinNT
#	Modification time:	15. 06. 2019 20:11

#	Program:	/corina/corina34_cracker 3.40 0067  02.08.2006

@<TRIPOS>MOLECULE
ASD01940040
  50   52    0    0    0
SMALL
NO_CHARGES


@<TRIPOS>ATOM
   1 C1             0.0373     1.5538     0.6479 C.ar    
   2 C2             0.0078     0.5489     1.6059 C.ar    
   3 C3            -1.0989    -0.2701     1.7132 C.ar    
   4 C4            -2.1810    -0.0892     0.8641 C.ar    
   5 C5            -2.1521     0.9144    -0.0938 C.ar    
   6 C6            -1.0489     1.7377    -0.1984 C.ar    
   7 N7             1.1582     2.3845     0.5389 N.pl3   
   8 C8             2.4290     1.8494     0.6494 C.2     
   9 C9             3.6324     2.5396     0.6796 C.2     
  10 C10            4.7492     1.7108     0.7990 C.2     
  11 N11            4.5269     0.4333     0.8649 N.2     
  12 S12            2.8522     0.1880     0.7860 S.3     
  13 O13            6.0089     2.2169     0.8436 O.3     
  14 C14            3.7228     4.0062     0.5935 C.2     
  15 N15            3.8376     4.6191    -0.6369 N.pl3   
  16 N16            3.6941     4.7278     1.6828 N.2     
  17 C17            3.9275     6.0788    -0.7226 C.3     
  18 C18            5.3828     6.5120    -0.5348 C.3     
  19 C19            3.4308     6.5407    -2.0941 C.3     
  20 O20            4.3076     6.0476    -3.1091 O.3     
  21 O21           -3.2702    -0.8960     0.9703 O.3     
  22 C22           -3.5099    -1.7802    -0.0342 C.ar    
  23 C23           -4.6721    -2.5395    -0.0289 C.ar    
  24 C24           -4.9139    -3.4381    -1.0514 C.ar    
  25 C25           -3.9978    -3.5804    -2.0795 C.ar    
  26 C26           -2.5963    -1.9205    -1.0684 C.ar    
  27 C27           -2.8381    -2.8238    -2.0853 C.ar    
  28 Cl28          -5.8204    -2.3612     1.2607 Cl      
  29 F29           -4.2353    -4.4589    -3.0781 F       
  30 C30           -1.0179     2.8279    -1.2384 C.3     
  31 H31            0.8503     0.4077     2.2668 H       
  32 H32           -1.1218    -1.0519     2.4579 H       
  33 H33           -2.9947     1.0541    -0.7548 H       
  34 H34            1.0440     3.3356     0.3859 H       
  35 H35            6.3204     2.4184     1.7366 H       
  36 H36            3.8588     4.0835    -1.4454 H       
  37 H37            3.7537     5.6943     1.6260 H       
  38 H38            3.3114     6.5272     0.0568 H       
  39 H39            5.7367     6.1830     0.4422 H       
  40 H40            5.9989     6.0637    -1.3143 H       
  41 H41            5.4497     7.5981    -0.5986 H       
  42 H42            2.4252     6.1564    -2.2646 H       
  43 H43            3.4138     7.6301    -2.1264 H       
  44 H44            4.0531     6.3026    -4.0065 H       
  45 H45           -5.8176    -4.0294    -1.0478 H       
  46 H46           -1.6938    -1.3272    -1.0762 H       
  47 H47           -2.1244    -2.9364    -2.8880 H       
  48 H48           -1.4338     3.7433    -0.8176 H       
  49 H49            0.0120     3.0054    -1.5481 H       
  50 H50           -1.6096     2.5233    -2.1017 H       
@<TRIPOS>BOND
   1    1    2 ar
   2    1    7 1
   3    1    6 ar
   4    2    3 ar
   5    2   31 1
   6    3    4 ar
   7    3   32 1
   8    4    5 ar
   9    4   21 1
  10    5    6 ar
  11    5   33 1
  12    6   30 1
  13    7    8 1
  14    7   34 1
  15    8    9 2
  16    8   12 1
  17    9   10 1
  18    9   14 1
  19   10   11 2
  20   10   13 1
  21   11   12 1
  22   13   35 1
  23   14   15 1
  24   14   16 2
  25   15   17 1
  26   15   36 1
  27   16   37 1
  28   17   18 1
  29   17   19 1
  30   17   38 1
  31   18   39 1
  32   18   40 1
  33   18   41 1
  34   19   20 1
  35   19   42 1
  36   19   43 1
  37   20   44 1
  38   21   22 1
  39   22   23 ar
  40   22   26 ar
  41   23   24 ar
  42   23   28 1
  43   24   25 ar
  44   24   45 1
  45   25   27 ar
  46   25   29 1
  47   26   27 ar
  48   26   46 1
  49   27   47 1
  50   30   48 1
  51   30   49 1
  52   30   50 1

#	End of record

