#	Name: ASD01840023
#	Creating user name:	WinNT
#	Creation time:	15. 06. 2019 19:37

#	Modifying user name:	WinNT
#	Modification time:	15. 06. 2019 19:37

#	Program:	/corina/corina34_cracker 3.40 0067  02.08.2006

@<TRIPOS>MOLECULE
ASD01840023
  44   47    0    0    0
SMALL
NO_CHARGES


@<TRIPOS>ATOM
   1 C1             0.1122     1.4659    -0.4870 C.ar    
   2 N2             0.5442     1.0850    -1.6818 N.ar    
   3 C3             1.7313     0.5218    -1.8404 C.ar    
   4 N4             2.5558     0.3013    -0.8443 N.ar    
   5 C5             2.2187     0.6478     0.4070 C.ar    
   6 C6             0.9584     1.2546     0.6287 C.ar    
   7 N7            -1.1244     2.0567    -0.3362 N.3     
   8 C8            -3.6750     3.1169    -1.1784 C.3     
   9 C9            -2.5189     4.0268    -0.7542 C.3     
  10 C10           -1.1903     3.3321    -1.0611 C.3     
  11 C11           -2.1970     1.1483    -0.7614 C.3     
  12 C12           -3.5557     1.7778    -0.4455 C.3     
  13 O13           -4.9182     3.7361    -0.8422 O.3     
  14 C14           -6.0058     3.3729    -1.5719 C.ar    
  15 N15           -8.2815     3.6605    -2.0892 N.ar    
  16 C16           -7.2241     4.0095    -1.3837 C.ar    
  17 C17           -5.9119     2.3615    -2.5222 C.ar    
  18 C18           -7.0478     2.0265    -3.2419 C.ar    
  19 C19           -8.2274     2.7027    -2.9941 C.ar    
  20 C20           -9.4672     2.3444    -3.7722 C.3     
  21 C21            3.0751     0.4264     1.4943 C.ar    
  22 C22            2.6839     0.7971     2.7461 C.ar    
  23 C23            1.4428     1.3940     2.9633 C.ar    
  24 C24            0.5856     1.6250     1.9255 C.ar    
  25 F25            1.0840     1.7493     4.2164 F       
  26 H26            2.0348     0.2302    -2.8351 H       
  27 H27           -3.6301     2.9485    -2.2544 H       
  28 H28           -2.5742     4.9660    -1.3046 H       
  29 H29           -2.5866     4.2266     0.3152 H       
  30 H30           -0.3652     3.9713    -0.7471 H       
  31 H31           -1.1173     3.1451    -2.1325 H       
  32 H32           -2.1193     0.9715    -1.8342 H       
  33 H33           -2.1030     0.2014    -0.2297 H       
  34 H34           -3.6396     1.9422     0.6288 H       
  35 H35           -4.3516     1.1102    -0.7754 H       
  36 H36           -7.3071     4.7989    -0.6513 H       
  37 H37           -4.9765     1.8500    -2.6952 H       
  38 H38           -7.0116     1.2464    -3.9880 H       
  39 H39           -9.5159     2.9500    -4.6772 H       
  40 H40           -9.4341     1.2890    -4.0426 H       
  41 H41          -10.3484     2.5351    -3.1597 H       
  42 H42            4.0391    -0.0357     1.3411 H       
  43 H43            3.3452     0.6256     3.5825 H       
  44 H44           -0.3734     2.0884     2.1046 H       
@<TRIPOS>BOND
   1    1    2 ar
   2    1    6 ar
   3    1    7 1
   4    2    3 ar
   5    3    4 ar
   6    3   26 1
   7    4    5 ar
   8    5   21 ar
   9    5    6 ar
  10    6   24 ar
  11    7   11 1
  12    7   10 1
  13    8    9 1
  14    8   12 1
  15    8   13 1
  16    8   27 1
  17    9   10 1
  18    9   28 1
  19    9   29 1
  20   10   30 1
  21   10   31 1
  22   11   12 1
  23   11   32 1
  24   11   33 1
  25   12   34 1
  26   12   35 1
  27   13   14 1
  28   14   17 ar
  29   14   16 ar
  30   15   16 ar
  31   15   19 ar
  32   16   36 1
  33   17   18 ar
  34   17   37 1
  35   18   19 ar
  36   18   38 1
  37   19   20 1
  38   20   39 1
  39   20   40 1
  40   20   41 1
  41   21   22 ar
  42   21   42 1
  43   22   23 ar
  44   22   43 1
  45   23   24 ar
  46   23   25 1
  47   24   44 1

#	End of record

