#	Name: ASD01913030
#	Creating user name:	WinNT
#	Creation time:	15. 06. 2019 20:00

#	Modifying user name:	WinNT
#	Modification time:	15. 06. 2019 20:00

#	Program:	/corina/corina34_cracker 3.40 0067  02.08.2006

@<TRIPOS>MOLECULE
ASD01913030
  52   55    0    0    0
SMALL
NO_CHARGES


@<TRIPOS>ATOM
   1 C1            -0.0241     1.4416     0.4204 C.ar    
   2 C2            -0.0007    -0.0193     0.1838 C.2     
   3 N3            -1.0818    -0.8318     0.0079 N.pl3   
   4 C4             1.1088    -0.8122     0.0936 C.2     
   5 C5             0.6207    -2.1174    -0.1356 C.2     
   6 N6            -0.6956    -2.0434    -0.1735 N.2     
   7 C7             1.4334    -3.3379    -0.3056 C.2     
   8 O8             0.8311    -4.5239    -0.5194 O.3     
   9 O9             2.6454    -3.2729    -0.2527 O.2     
  10 C10            1.6928    -5.6818    -0.6775 C.3     
  11 C11           -2.4779    -0.3882     0.0241 C.3     
  12 C12           -2.9330    -0.1101    -1.3854 C.2     
  13 N13           -4.1916     0.3129    -1.6161 N.am    
  14 O14           -2.1665    -0.2670    -2.3122 O.2     
  15 C15           -4.6562     0.5901    -2.9838 C.3     
  16 C16           -5.9715    -0.1620    -3.2130 C.3     
  17 N17           -6.9237     0.1883    -2.1506 N.3     
  18 C18           -6.4335    -0.2392    -0.8335 C.3     
  19 C19           -5.1390     0.5038    -0.5073 C.3     
  20 C20           -8.1748    -0.3433    -2.4108 C.ar    
  21 N21           -9.1610    -0.1258    -1.5532 N.ar    
  22 C22          -10.3685    -0.6196    -1.7720 C.ar    
  23 C23          -10.5947    -1.3716    -2.9141 C.ar    
  24 C24           -9.5408    -1.5797    -3.7900 C.ar    
  25 N25           -8.3591    -1.0531    -3.5143 N.ar    
  26 C26            1.0563     2.0678     1.0419 C.ar    
  27 C27            1.0286     3.4301     1.2593 C.ar    
  28 C28           -0.0677     4.1747     0.8623 C.ar    
  29 C29           -1.1425     3.5593     0.2458 C.ar    
  30 C30           -1.1243     2.1986     0.0177 C.ar    
  31 H31            2.1408    -0.5054     0.1792 H       
  32 H32            2.3522    -5.5300    -1.5320 H       
  33 H33            2.2909    -5.8154     0.2239 H       
  34 H34            1.0820    -6.5693    -0.8431 H       
  35 H35           -3.1020    -1.1683     0.4601 H       
  36 H36           -2.5635     0.5207     0.6195 H       
  37 H37           -4.8207     1.6608    -3.1047 H       
  38 H38           -3.9093     0.2484    -3.7004 H       
  39 H39           -6.3870     0.1185    -4.1808 H       
  40 H40           -5.7845    -1.2357    -3.1943 H       
  41 H41           -7.1841    -0.0148    -0.0756 H       
  42 H42           -6.2402    -1.3119    -0.8480 H       
  43 H43           -4.7116     0.1078     0.4138 H       
  44 H44           -5.3469     1.5674    -0.3902 H       
  45 H45          -11.1683    -0.4392    -1.0691 H       
  46 H46          -11.5709    -1.7867    -3.1170 H       
  47 H47           -9.6838    -2.1614    -4.6887 H       
  48 H48            1.9125     1.4875     1.3526 H       
  49 H49            1.8643     3.9161     1.7407 H       
  50 H50           -0.0847     5.2407     1.0346 H       
  51 H51           -1.9958     4.1459    -0.0612 H       
  52 H52           -1.9638     1.7194    -0.4640 H       
@<TRIPOS>BOND
   1    1    2 1
   2    1   26 ar
   3    1   30 ar
   4    2    3 1
   5    2    4 2
   6    3   11 1
   7    3    6 1
   8    4    5 1
   9    4   31 1
  10    5    6 2
  11    5    7 1
  12    7    8 1
  13    7    9 2
  14    8   10 1
  15   10   32 1
  16   10   33 1
  17   10   34 1
  18   11   12 1
  19   11   35 1
  20   11   36 1
  21   12   13 am
  22   12   14 2
  23   13   15 1
  24   13   19 1
  25   15   16 1
  26   15   37 1
  27   15   38 1
  28   16   17 1
  29   16   39 1
  30   16   40 1
  31   17   18 1
  32   17   20 1
  33   18   19 1
  34   18   41 1
  35   18   42 1
  36   19   43 1
  37   19   44 1
  38   20   21 ar
  39   20   25 ar
  40   21   22 ar
  41   22   23 ar
  42   22   45 1
  43   23   24 ar
  44   23   46 1
  45   24   25 ar
  46   24   47 1
  47   26   27 ar
  48   26   48 1
  49   27   28 ar
  50   27   49 1
  51   28   29 ar
  52   28   50 1
  53   29   30 ar
  54   29   51 1
  55   30   52 1

#	End of record

