#	Name: ASD03090691
#	Creating user name:	WinNT
#	Creation time:	15. 06. 2019 20:29

#	Modifying user name:	WinNT
#	Modification time:	15. 06. 2019 20:29

#	Program:	/corina/corina34_cracker 3.40 0067  02.08.2006

@<TRIPOS>MOLECULE
ASD03090691
  35   36    0    0    0
SMALL
NO_CHARGES


@<TRIPOS>ATOM
   1 N1            -0.2390     1.3839     0.0653 N.am    
   2 C2            -0.5847     0.1882    -0.4518 C.2     
   3 O3             0.2079    -0.4305    -1.1355 O.2     
   4 N4            -1.8088    -0.3217    -0.2109 N.am    
   5 S5            -3.6753    -2.3363    -0.5320 S.3     
   6 C6            -2.1655    -1.5554    -0.7444 C.2     
   7 N7            -1.4090    -2.3067    -1.4865 N.2     
   8 N8            -1.8878    -3.4026    -1.8910 N.2     
   9 C9            -3.0993    -3.6762    -1.5242 C.2     
  10 C10           -3.8771    -4.9169    -1.8806 C.3     
  11 F11           -3.0508    -5.7990    -2.5850 F       
  12 F12           -4.3297    -5.5357    -0.7104 F       
  13 F13           -4.9728    -4.5676    -2.6771 F       
  14 C14            1.3155     3.2160    -0.2248 C.ar    
  15 C15            1.0719     1.8583    -0.0812 C.ar    
  16 C16            2.1468     0.9719    -0.0840 C.ar    
  17 C17            3.4233     1.4852    -0.2309 C.ar    
  18 C18            3.5899     2.8567    -0.3697 C.ar    
  19 N19            2.5467     3.6693    -0.3626 N.ar    
  20 S20           -0.0351     4.3476    -0.2304 S.o2    
  21 O21            0.4877     5.5142    -0.8508 O.2     
  22 O22           -1.1011     3.6181    -0.8226 O.2     
  23 C23           -0.3735     4.6573     1.5247 C.3     
  24 O24            4.8386     3.3695    -0.5139 O.3     
  25 C25            4.9454     4.7878    -0.6524 C.3     
  26 H26           -0.8984     1.9179     0.5353 H       
  27 H27           -2.4410     0.1719     0.3345 H       
  28 H28            1.9875    -0.0906     0.0263 H       
  29 H29            4.2797     0.8271    -0.2372 H       
  30 H30            0.5123     5.0832     1.9958 H       
  31 H31           -1.2053     5.3556     1.6166 H       
  32 H32           -0.6308     3.7190     2.0161 H       
  33 H33            4.3930     5.1093    -1.5353 H       
  34 H34            4.5305     5.2715     0.2319 H       
  35 H35            5.9943     5.0644    -0.7594 H       
@<TRIPOS>BOND
   1    1    2 am
   2    1   15 1
   3    1   26 1
   4    2    3 2
   5    2    4 am
   6    4    6 1
   7    4   27 1
   8    5    6 1
   9    5    9 1
  10    6    7 2
  11    7    8 1
  12    8    9 2
  13    9   10 1
  14   10   11 1
  15   10   12 1
  16   10   13 1
  17   14   15 ar
  18   14   19 ar
  19   14   20 1
  20   15   16 ar
  21   16   17 ar
  22   16   28 1
  23   17   18 ar
  24   17   29 1
  25   18   19 ar
  26   18   24 1
  27   20   21 2
  28   20   22 2
  29   20   23 1
  30   23   30 1
  31   23   31 1
  32   23   32 1
  33   24   25 1
  34   25   33 1
  35   25   34 1
  36   25   35 1

#	End of record

