#	Name: ASD01000132
#	Creating user name:	WinNT
#	Creation time:	15. 06. 2019 18:54

#	Modifying user name:	WinNT
#	Modification time:	15. 06. 2019 18:54

#	Program:	/corina/corina34_cracker 3.40 0067  02.08.2006

@<TRIPOS>MOLECULE
ASD01000132
  44   48    0    0    0
SMALL
NO_CHARGES


@<TRIPOS>ATOM
   1 C1            -0.0184     1.5039     0.0103 C.3     
   2 C2             0.0021    -0.0041     0.0020 C.2     
   3 C3             1.0416    -0.7788    -0.3733 C.2     
   4 C4             2.3731    -0.2271    -0.8438 C.3     
   5 N5             2.1959     1.2250    -0.9687 N.am    
   6 C6             1.4210     2.0323    -0.0006 C.3     
   7 C7            -1.0715    -0.9025     0.3858 C.ar    
   8 C8            -0.5717    -2.2166     0.1996 C.ar    
   9 N9             0.7081    -2.1021    -0.2614 N.pl3   
  10 C10           -2.3690    -0.6776     0.8542 C.ar    
  11 C11           -3.1315    -1.7878     1.1239 C.ar    
  12 C12           -2.6486    -3.0734     0.9449 C.ar    
  13 C13           -1.3683    -3.3242     0.4812 C.ar    
  14 C14            2.6459     2.0576    -1.9091 C.2     
  15 N15            2.2079     3.3115    -1.7258 N.am    
  16 C16            1.4499     3.4171    -0.6151 C.2     
  17 C17            2.7361    -0.8210    -2.1805 C.ar    
  18 C18            2.1670    -0.3188    -3.3355 C.ar    
  19 C19            2.4969    -0.8604    -4.5644 C.ar    
  20 C20            3.3998    -1.9082    -4.6397 C.ar    
  21 C21            3.9733    -2.4136    -3.4764 C.ar    
  22 C22            3.6422    -1.8634    -2.2490 C.ar    
  23 O23            3.7249    -2.4421    -5.8474 O.3     
  24 *24            2.5227     4.4561    -2.6428 Du      
  25 O25            0.9037     4.4146    -0.1951 O.2     
  26 O26            3.3691     1.7188    -2.8252 O.2     
  27 O27            4.8599    -3.4425    -3.5451 O.3     
  28 C28            5.4083    -3.9098    -2.3111 C.3     
  29 H29           -0.5451     1.8652    -0.8729 H       
  30 H30           -0.5281     1.8557     0.9073 H       
  31 H31            3.1496    -0.4479    -0.1115 H       
  32 H32            1.8655     2.0067     0.9943 H       
  33 H33            1.2926    -2.8455    -0.4771 H       
  34 H34           -2.7536     0.3213     0.9976 H       
  35 H35           -4.1396    -1.6539     1.4874 H       
  36 H36           -3.2932    -3.9090     1.1742 H       
  37 H37           -1.0037    -4.3317     0.3456 H       
  38 H38            1.4629     0.4981    -3.2782 H       
  39 H39            2.0502    -0.4666    -5.4655 H       
  40 H40            4.0857    -2.2537    -1.3450 H       
  41 H41            4.4829    -2.0189    -6.2734 H       
  42 H42            5.9414    -3.0962    -1.8192 H       
  43 H43            4.6032    -4.2596    -1.6650 H       
  44 H44            6.0988    -4.7300    -2.5078 H       
@<TRIPOS>BOND
   1    1    2 1
   2    1    6 1
   3    1   29 1
   4    1   30 1
   5    2    3 2
   6    2    7 1
   7    3    4 1
   8    3    9 1
   9    4    5 1
  10    4   17 1
  11    4   31 1
  12    5    6 1
  13    5   14 am
  14    6   16 1
  15    6   32 1
  16    7    8 ar
  17    7   10 ar
  18    8    9 1
  19    8   13 ar
  20    9   33 1
  21   10   11 ar
  22   10   34 1
  23   11   12 ar
  24   11   35 1
  25   12   13 ar
  26   12   36 1
  27   13   37 1
  28   14   15 am
  29   14   26 2
  30   15   16 am
  31   15   24 1
  32   16   25 2
  33   17   18 ar
  34   17   22 ar
  35   18   19 ar
  36   18   38 1
  37   19   20 ar
  38   19   39 1
  39   20   21 ar
  40   20   23 1
  41   21   27 1
  42   21   22 ar
  43   22   40 1
  44   23   41 1
  45   27   28 1
  46   28   42 1
  47   28   43 1
  48   28   44 1

#	End of record

