#	Name: ASD01918505
#	Creating user name:	WinNT
#	Creation time:	15. 06. 2019 20:11

#	Modifying user name:	WinNT
#	Modification time:	15. 06. 2019 20:11

#	Program:	/corina/corina34_cracker 3.40 0067  02.08.2006

@<TRIPOS>MOLECULE
ASD01918505
  38   41    0    0    0
SMALL
NO_CHARGES


@<TRIPOS>ATOM
   1 F1            -1.6351     1.0230    -3.5607 F       
   2 C2            -1.4494     2.2826    -3.1087 C.ar    
   3 C3            -2.5409     3.0961    -2.8298 C.ar    
   4 C4            -2.3071     4.3794    -2.3682 C.ar    
   5 C5            -0.9911     4.8102    -2.1997 C.ar    
   6 N6             0.0254     4.0016    -2.4782 N.ar    
   7 C7            -0.1680     2.7743    -2.9132 C.ar    
   8 C8            -0.7254     6.1785    -1.7075 C.2     
   9 N9            -1.6379     7.0709    -1.3923 N.2     
  10 C10           -1.0208     8.1831    -0.9907 C.2     
  11 C11           -1.6418     9.4826    -0.5369 C.3     
  12 N12           -0.5654    10.3011     0.0496 N.am    
  13 C13            0.7209    10.3754    -0.6593 C.3     
  14 C14            1.3621     8.9821    -0.6833 C.3     
  15 C15            0.3107     7.9694    -1.0576 C.2     
  16 O16            0.4918     6.7168    -1.5016 O.3     
  17 C17           -0.7554    10.9653     1.2069 C.2     
  18 O18            0.1712    11.5541     1.7290 O.2     
  19 C19           -2.0893    10.9778     1.8407 C.ar    
  20 C20           -3.2330    11.1764     1.0647 C.ar    
  21 C21           -4.4755    11.1871     1.6627 C.ar    
  22 C22           -4.5925    11.0019     3.0294 C.ar    
  23 C23           -3.4661    10.8045     3.8063 C.ar    
  24 C24           -2.2138    10.7851     3.2204 C.ar    
  25 F25           -1.1136    10.5861     3.9788 F       
  26 H26           -3.5490     2.7349    -2.9704 H       
  27 H27           -3.1322     5.0385    -2.1419 H       
  28 H28            0.6829     2.1436    -3.1246 H       
  29 H29           -2.0800    10.0018    -1.3893 H       
  30 H30           -2.4083     9.2856     0.2126 H       
  31 H31            0.5548    10.7178    -1.6807 H       
  32 H32            1.3817    11.0719    -0.1433 H       
  33 H33            2.1662     8.9628    -1.4190 H       
  34 H34            1.7613     8.7467     0.3032 H       
  35 H35           -3.1446    11.3218    -0.0018 H       
  36 H36           -5.3602    11.3407     1.0627 H       
  37 H37           -5.5687    11.0121     3.4913 H       
  38 H38           -3.5648    10.6608     4.8722 H       
@<TRIPOS>BOND
   1    1    2 1
   2    2    7 ar
   3    2    3 ar
   4    3    4 ar
   5    3   26 1
   6    4    5 ar
   7    4   27 1
   8    5    6 ar
   9    5    8 1
  10    6    7 ar
  11    7   28 1
  12    8   16 1
  13    8    9 2
  14    9   10 1
  15   10   15 2
  16   10   11 1
  17   11   12 1
  18   11   29 1
  19   11   30 1
  20   12   13 1
  21   12   17 am
  22   13   14 1
  23   13   31 1
  24   13   32 1
  25   14   15 1
  26   14   33 1
  27   14   34 1
  28   15   16 1
  29   17   18 2
  30   17   19 1
  31   19   24 ar
  32   19   20 ar
  33   20   21 ar
  34   20   35 1
  35   21   22 ar
  36   21   36 1
  37   22   23 ar
  38   22   37 1
  39   23   24 ar
  40   23   38 1
  41   24   25 1

#	End of record

