#	Name: ASD09740715
#	Creating user name:	WinNT
#	Creation time:	15. 06. 2019 21:23

#	Modifying user name:	WinNT
#	Modification time:	15. 06. 2019 21:23

#	Program:	/corina/corina34_cracker 3.40 0067  02.08.2006

@<TRIPOS>MOLECULE
ASD09740715
  43   44    0    0    0
SMALL
NO_CHARGES


@<TRIPOS>ATOM
   1 C1             0.0031     0.0606     0.4293 C.1     
   2 C2            -0.0174     1.4293     0.0087 C.ar    
   3 C3             1.1871     2.1195    -0.2046 C.ar    
   4 C4             1.1627     3.4467    -0.6130 C.ar    
   5 C5            -0.0393     4.0895    -0.8094 C.ar    
   6 C6            -1.2430     3.4118    -0.5994 C.ar    
   7 C7            -1.2316     2.0796    -0.1961 C.ar    
   8 N8             0.0194    -1.0251     0.7630 N.1     
   9 O9            -2.8101     5.5098    -1.2411 O.3     
  10 B10           -2.6093     4.1517    -0.8244 Du      
  11 O11           -3.9306     3.6177    -0.6590 O.3     
  12 C12           -4.6873     4.1681    -1.7577 C.3     
  13 C13           -3.9276     5.4509    -2.1524 C.3     
  14 C14           -4.8249     6.6775    -1.9756 C.3     
  15 C15           -3.4330     5.3545    -3.5970 C.3     
  16 C16           -4.7178     3.1847    -2.9295 C.3     
  17 C17           -6.1097     4.5078    -1.3081 C.3     
  18 O18            2.3720     1.4911    -0.0117 O.3     
  19 C19            3.5542     2.2853    -0.1292 C.3     
  20 C20            4.6796     1.6488     0.6889 C.3     
  21 C21            3.9728     2.3623    -1.5988 C.3     
  22 H22            2.0894     3.9765    -0.7767 H       
  23 H23           -0.0515     5.1218    -1.1266 H       
  24 H24           -2.1615     1.5535    -0.0378 H       
  25 H25           -4.2563     7.5794    -2.2026 H       
  26 H26           -5.6766     6.6052    -2.6519 H       
  27 H27           -5.1809     6.7220    -0.9463 H       
  28 H28           -2.8092     4.4676    -3.7090 H       
  29 H29           -4.2877     5.2849    -4.2698 H       
  30 H30           -2.8495     6.2422    -3.8413 H       
  31 H31           -5.2065     2.2620    -2.6168 H       
  32 H32           -5.2704     3.6254    -3.7593 H       
  33 H33           -3.6983     2.9663    -3.2471 H       
  34 H34           -6.0700     5.2207    -0.4845 H       
  35 H35           -6.6594     4.9456    -2.1414 H       
  36 H36           -6.6133     3.5991    -0.9782 H       
  37 H37            3.3560     3.2896     0.2452 H       
  38 H38            4.8778     0.6445     0.3145 H       
  39 H39            5.5813     2.2546     0.5992 H       
  40 H40            4.3814     1.5940     1.7359 H       
  41 H41            4.1710     1.3580    -1.9733 H       
  42 H42            3.1710     2.8157    -2.1817 H       
  43 H43            4.8745     2.9680    -1.6885 H       
@<TRIPOS>BOND
   1    1    2 1
   2    1    8 3
   3    2    3 ar
   4    2    7 ar
   5    3    4 ar
   6    3   18 1
   7    4    5 ar
   8    4   22 1
   9    5    6 ar
  10    5   23 1
  11    6    7 ar
  12    6   10 1
  13    7   24 1
  14    9   10 1
  15    9   13 1
  16   10   11 1
  17   11   12 1
  18   12   13 1
  19   12   16 1
  20   12   17 1
  21   13   14 1
  22   13   15 1
  23   14   25 1
  24   14   26 1
  25   14   27 1
  26   15   28 1
  27   15   29 1
  28   15   30 1
  29   16   31 1
  30   16   32 1
  31   16   33 1
  32   17   34 1
  33   17   35 1
  34   17   36 1
  35   18   19 1
  36   19   20 1
  37   19   21 1
  38   19   37 1
  39   20   38 1
  40   20   39 1
  41   20   40 1
  42   21   41 1
  43   21   42 1
  44   21   43 1

#	End of record

