#	Name: ASD04910238
#	Creating user name:	WinNT
#	Creation time:	15. 06. 2019 20:55

#	Modifying user name:	WinNT
#	Modification time:	15. 06. 2019 20:55

#	Program:	/corina/corina34_cracker 3.40 0067  02.08.2006

@<TRIPOS>MOLECULE
ASD04910238
  67   69    0    0    0
SMALL
NO_CHARGES


@<TRIPOS>ATOM
   1 C1             1.0716     1.7056     0.6275 C.2     
   2 C2             0.9271     0.2089     0.5279 C.3     
   3 C3             2.3140    -0.4344     0.4674 C.3     
   4 O4             2.1710     2.2064     0.6481 O.2     
   5 O5            -0.0211     2.4828     0.6879 O.3     
   6 C6             3.2707    -2.6695     0.3043 C.2     
   7 C7             3.1289    -4.1379     0.2065 C.ar    
   8 C8             4.2631    -4.9485     0.1377 C.ar    
   9 C9             4.1239    -6.3180     0.0471 C.ar    
  10 C10            2.8635    -6.8882     0.0238 C.ar    
  11 C11            1.7351    -6.0904     0.0916 C.ar    
  12 C12            1.8605    -4.7199     0.1883 C.ar    
  13 O13            4.3767    -2.1657     0.3249 O.2     
  14 N14            2.1735    -1.8895     0.3705 N.am    
  15 C15            2.7190    -8.3850    -0.0764 C.3     
  16 C16            2.4383    -8.9643     1.3116 C.3     
  17 C17            1.1309    -8.3819     1.8524 C.3     
  18 N18            1.6081    -8.7093    -0.9747 N.pl3   
  19 C19            3.0742    -8.5095    -2.8879 C.ar    
  20 C20            1.8074    -8.7162    -2.3588 C.ar    
  21 C21            0.7370    -8.9312    -3.2248 C.ar    
  22 C22            0.9814    -8.9299    -4.5868 C.ar    
  23 C23            2.2760    -8.7161    -5.0426 C.ar    
  24 N24            3.2690    -8.5152    -4.1918 N.ar    
  25 N25            2.5330    -8.7131    -6.4184 N.pl3   
  26 N26            1.5892    -8.9099    -7.4349 N.2     
  27 C27            2.2059    -8.8363    -8.5866 C.2     
  28 C28            3.5621    -8.5906    -8.3455 C.2     
  29 C29            3.7407    -8.5130    -7.0064 C.2     
  30 C30            4.6342    -8.4343    -9.3929 C.3     
  31 F31            4.0675    -8.5724   -10.6645 F       
  32 F32            5.2179    -7.1681    -9.2775 F       
  33 F33            5.6125    -9.4173    -9.2092 F       
  34 C34            2.3167   -10.4863     1.2139 C.3     
  35 C35            3.5865    -8.6039     2.2564 C.3     
  36 C36            0.1935     3.9157     0.7828 C.3     
  37 C37           -1.1577     4.6311     0.8409 C.3     
  38 H38            0.3917    -0.1634     1.4012 H       
  39 H39            0.3701    -0.0431    -0.3745 H       
  40 H40            2.8494    -0.0621    -0.4060 H       
  41 H41            2.8711    -0.1825     1.3698 H       
  42 H42            5.2475    -4.5045     0.1551 H       
  43 H43            5.0006    -6.9464    -0.0062 H       
  44 H44            0.7541    -6.5418     0.0729 H       
  45 H45            0.9790    -4.0985     0.2456 H       
  46 H46            1.2909    -2.2915     0.3540 H       
  47 H47            3.6410    -8.8135    -0.4693 H       
  48 H48            0.3129    -8.6386     1.1793 H       
  49 H49            0.9309    -8.7946     2.8413 H       
  50 H50            1.2175    -7.2975     1.9220 H       
  51 H51            0.7344    -8.9192    -0.6094 H       
  52 H52            3.9086    -8.3377    -2.2241 H       
  53 H53           -0.2595    -9.0951    -2.8421 H       
  54 H54            0.1754    -9.0936    -5.2869 H       
  55 H55            1.7465    -8.9466    -9.5577 H       
  56 H56            4.6750    -8.3281    -6.4973 H       
  57 H57            3.2121   -10.8929     0.7439 H       
  58 H58            2.2081   -10.9070     2.2136 H       
  59 H59            1.4432   -10.7433     0.6148 H       
  60 H60            3.6731    -7.5196     2.3260 H       
  61 H61            3.3865    -9.0166     3.2452 H       
  62 H62            4.5179    -9.0188     1.8711 H       
  63 H63            0.7619     4.1390     1.6856 H       
  64 H64            0.7489     4.2585    -0.0902 H       
  65 H65           -0.9966     5.7068     0.9121 H       
  66 H66           -1.7261     4.4078    -0.0620 H       
  67 H67           -1.7130     4.2883     1.7139 H       
@<TRIPOS>BOND
   1    1    2 1
   2    1    4 2
   3    1    5 1
   4    2    3 1
   5    2   38 1
   6    2   39 1
   7    3   14 1
   8    3   40 1
   9    3   41 1
  10    5   36 1
  11    6    7 1
  12    6   13 2
  13    6   14 am
  14    7    8 ar
  15    7   12 ar
  16    8    9 ar
  17    8   42 1
  18    9   10 ar
  19    9   43 1
  20   10   11 ar
  21   10   15 1
  22   11   12 ar
  23   11   44 1
  24   12   45 1
  25   14   46 1
  26   15   16 1
  27   15   18 1
  28   15   47 1
  29   16   17 1
  30   16   34 1
  31   16   35 1
  32   17   48 1
  33   17   49 1
  34   17   50 1
  35   18   20 1
  36   18   51 1
  37   19   20 ar
  38   19   24 ar
  39   19   52 1
  40   20   21 ar
  41   21   22 ar
  42   21   53 1
  43   22   23 ar
  44   22   54 1
  45   23   24 ar
  46   23   25 1
  47   25   26 1
  48   25   29 1
  49   26   27 2
  50   27   28 1
  51   27   55 1
  52   28   29 2
  53   28   30 1
  54   29   56 1
  55   30   31 1
  56   30   32 1
  57   30   33 1
  58   34   57 1
  59   34   58 1
  60   34   59 1
  61   35   60 1
  62   35   61 1
  63   35   62 1
  64   36   37 1
  65   36   63 1
  66   36   64 1
  67   37   65 1
  68   37   66 1
  69   37   67 1

#	End of record

