#	Name: ASD01881724
#	Creating user name:	WinNT
#	Creation time:	15. 06. 2019 19:43

#	Modifying user name:	WinNT
#	Modification time:	15. 06. 2019 19:43

#	Program:	/corina/corina34_cracker 3.40 0067  02.08.2006

@<TRIPOS>MOLECULE
ASD01881724
  48   51    0    0    0
SMALL
NO_CHARGES


@<TRIPOS>ATOM
   1 N1             0.0445     1.1975    -0.7505 N.pl3   
   2 N2             0.0357    -0.0526    -0.4400 N.2     
   3 N3             1.2109    -0.4760    -0.1319 N.2     
   4 C4             2.0906     0.5407    -0.2341 C.ar    
   5 C5             1.3353     1.6564    -0.6427 C.ar    
   6 C6             3.4664     0.6768    -0.0306 C.ar    
   7 C7             4.0649     1.9046    -0.2335 C.ar    
   8 C8             3.3067     3.0009    -0.6378 C.ar    
   9 C9             1.9603     2.8806    -0.8409 C.ar    
  10 O10            5.4033     2.0444    -0.0370 O.3     
  11 N11            7.9424     5.2406    -0.8322 N.am    
  12 C12            7.7832     4.8845     0.5843 C.3     
  13 C13            7.2288     3.4593     0.6751 C.3     
  14 C14            5.9405     3.3641    -0.1456 C.3     
  15 C15            6.2451     3.6714    -1.6136 C.3     
  16 C16            6.7883     5.0990    -1.7303 C.3     
  17 C17            9.1232     5.6940    -1.2977 C.2     
  18 C18            9.2708     6.0552    -2.7533 C.3     
  19 C19           10.6984     6.5381    -3.0168 C.3     
  20 O20           10.0670     5.8113    -0.5451 O.2     
  21 F21           11.6021     5.5197    -2.6951 F       
  22 F22           10.8354     6.8734    -4.3681 F       
  23 F23           10.9633     7.6629    -2.2281 F       
  24 C24           -1.1188     1.9910    -1.1547 C.3     
  25 C25           -1.7677     2.6121     0.0839 C.3     
  26 C26           -2.9342     3.5768    -0.1384 C.3     
  27 C27           -3.1946     2.1788     0.4261 C.3     
  28 Br28           4.5001    -0.8083     0.5188 Br      
  29 H29            3.7875     3.9555    -0.7925 H       
  30 H30            1.3826     3.7376    -1.1546 H       
  31 H31            8.7506     4.9328     1.0842 H       
  32 H32            7.0890     5.5776     1.0595 H       
  33 H33            7.9637     2.7573     0.2813 H       
  34 H34            7.0155     3.2175     1.7163 H       
  35 H35            5.2148     4.0840     0.2328 H       
  36 H36            6.9893     2.9673    -1.9859 H       
  37 H37            5.3316     3.5805    -2.2014 H       
  38 H38            6.0130     5.8095    -1.4439 H       
  39 H39            7.0993     5.2887    -2.7577 H       
  40 H40            9.0644     5.1789    -3.3678 H       
  41 H41            8.5667     6.8487    -3.0040 H       
  42 H42           -0.8008     2.7822    -1.8336 H       
  43 H43           -1.8400     1.3477    -1.6588 H       
  44 H44           -1.0924     2.8216     0.9134 H       
  45 H45           -3.0266     4.4208     0.5451 H       
  46 H46           -3.2393     3.7691    -1.1670 H       
  47 H47           -3.6710     1.4513    -0.2311 H       
  48 H48           -3.4583     2.1031     1.4811 H       
@<TRIPOS>BOND
   1    1    2 1
   2    1    5 1
   3    1   24 1
   4    2    3 2
   5    3    4 1
   6    4    5 ar
   7    4    6 ar
   8    5    9 ar
   9    6    7 ar
  10    6   28 1
  11    7    8 ar
  12    7   10 1
  13    8    9 ar
  14    8   29 1
  15    9   30 1
  16   10   14 1
  17   11   12 1
  18   11   16 1
  19   11   17 am
  20   12   13 1
  21   12   31 1
  22   12   32 1
  23   13   14 1
  24   13   33 1
  25   13   34 1
  26   14   15 1
  27   14   35 1
  28   15   16 1
  29   15   36 1
  30   15   37 1
  31   16   38 1
  32   16   39 1
  33   17   18 1
  34   17   20 2
  35   18   19 1
  36   18   40 1
  37   18   41 1
  38   19   21 1
  39   19   22 1
  40   19   23 1
  41   24   25 1
  42   24   42 1
  43   24   43 1
  44   25   26 1
  45   25   27 1
  46   25   44 1
  47   26   27 1
  48   26   45 1
  49   26   46 1
  50   27   47 1
  51   27   48 1

#	End of record

