#	Name: ASD03331471
#	Creating user name:	WinNT
#	Creation time:	15. 06. 2019 20:39

#	Modifying user name:	WinNT
#	Modification time:	15. 06. 2019 20:39

#	Program:	/corina/corina34_cracker 3.40 0067  02.08.2006

@<TRIPOS>MOLECULE
ASD03331471
  76   81    0    0    0
SMALL
NO_CHARGES


@<TRIPOS>ATOM
   1 N1            -0.0554     1.1577     0.5780 N.am    
   2 C2             0.1484    -0.2680     0.2869 C.3     
   3 C3             1.5965    -0.4765    -0.1672 C.3     
   4 C4             2.5455     0.0908     0.8909 C.3     
   5 C5             2.2995     1.5933     1.0462 C.3     
   6 C6             0.8593     1.8253     1.5141 C.3     
   7 C7             2.2974    -0.5973     2.2085 C.2     
   8 O8             2.0830     0.0599     3.2050 O.2     
   9 N9             2.3137    -1.9431     2.2794 N.am    
  10 C10           -1.0588     1.8414    -0.0068 C.2     
  11 O11           -1.7556     1.3010    -0.8435 O.2     
  12 N12           -2.3328     5.1247     1.0403 N.pl3   
  13 C13           -2.5307     3.7903     0.7910 C.2     
  14 C14           -1.3120     3.2480     0.3691 C.2     
  15 C15           -0.3752     4.2933     0.3715 C.2     
  16 C16           -1.0277     5.4340     0.7873 C.2     
  17 C17           -3.7505     3.0873     0.9350 C.2     
  18 N18           -5.6195     2.2881     2.3161 N.3     
  19 C19           -4.1583     2.5545     2.2843 C.3     
  20 C20           -3.5065     1.1785     2.5393 C.3     
  21 O21           -2.3389     1.3250     3.3501 O.3     
  22 C22           -4.5787     0.3594     3.2871 C.3     
  23 C23           -5.7882     1.3094     3.4210 C.3     
  24 O24           -4.4684     2.9136    -0.0287 O.2     
  25 C25           -0.4156     6.7703     0.9348 C.ar    
  26 C26            0.7767     6.9214     1.6485 C.ar    
  27 C27            1.3429     8.1730     1.7824 C.ar    
  28 C28            0.7321     9.2768     1.2115 C.ar    
  29 C29           -0.4494     9.1330     0.5033 C.ar    
  30 C30           -1.0226     7.8871     0.3572 C.ar    
  31 Cl31           1.4500    10.8479     1.3847 Cl      
  32 Cl32           1.5430     5.5383     2.3652 Cl      
  33 C33           -3.3116     6.0242     1.4772 C.ar    
  34 C34           -3.2227     6.5884     2.7434 C.ar    
  35 C35           -4.1898     7.4761     3.1719 C.ar    
  36 C36           -5.2470     7.8038     2.3410 C.ar    
  37 C37           -5.3381     7.2431     1.0789 C.ar    
  38 C38           -4.3709     6.3589     0.6434 C.ar    
  39 Cl39          -6.4613     8.9197     2.8830 Cl      
  40 C40            3.9715    -0.1429     0.4634 C.ar    
  41 C41            5.0115     0.3665     1.2184 C.ar    
  42 C42            6.3196     0.1525     0.8269 C.ar    
  43 C43            6.5881    -0.5718    -0.3209 C.ar    
  44 C44            5.5469    -1.0814    -1.0761 C.ar    
  45 C45            4.2393    -0.8715    -0.6805 C.ar    
  46 Cl46           8.2309    -0.8406    -0.8137 Cl      
  47 H47           -0.0409    -0.8551     1.1856 H       
  48 H48           -0.5317    -0.5799    -0.5057 H       
  49 H49            1.7882    -1.5420    -0.2941 H       
  50 H50            1.7583     0.0381    -1.1144 H       
  51 H51            2.9916     2.0011     1.7830 H       
  52 H52            2.4547     2.0884     0.0876 H       
  53 H53            0.6484     2.8945     1.5312 H       
  54 H54            0.7281     1.4089     2.5129 H       
  55 H55            2.5543    -2.4670     1.4993 H       
  56 H56            2.0849    -2.3878     3.1106 H       
  57 H57            0.6668     4.2175     0.0978 H       
  58 H58           -6.1374     3.1343     2.5005 H       
  59 H59           -3.8831     3.2588     3.0694 H       
  60 H60           -3.2525     0.6989     1.5940 H       
  61 H61           -1.8871     0.4921     3.5432 H       
  62 H62           -4.8526    -0.5230     2.7087 H       
  63 H63           -4.2143     0.0691     4.2725 H       
  64 H64           -5.7677     1.8173     4.3852 H       
  65 H65           -6.7203     0.7573     3.3008 H       
  66 H66            2.2640     8.2917     2.3338 H       
  67 H67           -0.9209     9.9981     0.0608 H       
  68 H68           -1.9416     7.7761    -0.1992 H       
  69 H69           -2.3981     6.3327     3.3924 H       
  70 H70           -4.1213     7.9148     4.1564 H       
  71 H71           -6.1641     7.5006     0.4325 H       
  72 H72           -4.4401     5.9251    -0.3433 H       
  73 H73            4.8017     0.9322     2.1142 H       
  74 H74            7.1320     0.5508     1.4166 H       
  75 H75            5.7559    -1.6469    -1.9722 H       
  76 H76            3.4265    -1.2730    -1.2675 H       
@<TRIPOS>BOND
   1    1    2 1
   2    1    6 1
   3    1   10 am
   4    2    3 1
   5    2   47 1
   6    2   48 1
   7    3    4 1
   8    3   49 1
   9    3   50 1
  10    4    5 1
  11    4    7 1
  12    4   40 1
  13    5    6 1
  14    5   51 1
  15    5   52 1
  16    6   53 1
  17    6   54 1
  18    7    8 2
  19    7    9 am
  20    9   55 1
  21    9   56 1
  22   10   11 2
  23   10   14 1
  24   12   13 1
  25   12   16 1
  26   12   33 1
  27   13   14 2
  28   13   17 1
  29   14   15 1
  30   15   16 2
  31   15   57 1
  32   16   25 1
  33   17   24 2
  34   17   19 1
  35   18   19 1
  36   18   23 1
  37   18   58 1
  38   19   20 1
  39   19   59 1
  40   20   21 1
  41   20   22 1
  42   20   60 1
  43   21   61 1
  44   22   23 1
  45   22   62 1
  46   22   63 1
  47   23   64 1
  48   23   65 1
  49   25   26 ar
  50   25   30 ar
  51   26   27 ar
  52   26   32 1
  53   27   28 ar
  54   27   66 1
  55   28   29 ar
  56   28   31 1
  57   29   30 ar
  58   29   67 1
  59   30   68 1
  60   33   34 ar
  61   33   38 ar
  62   34   35 ar
  63   34   69 1
  64   35   36 ar
  65   35   70 1
  66   36   37 ar
  67   36   39 1
  68   37   38 ar
  69   37   71 1
  70   38   72 1
  71   40   41 ar
  72   40   45 ar
  73   41   42 ar
  74   41   73 1
  75   42   43 ar
  76   42   74 1
  77   43   44 ar
  78   43   46 1
  79   44   45 ar
  80   44   75 1
  81   45   76 1

#	End of record

