#	Name: ASD01912504
#	Creating user name:	WinNT
#	Creation time:	15. 06. 2019 19:59

#	Modifying user name:	WinNT
#	Modification time:	15. 06. 2019 19:59

#	Program:	/corina/corina34_cracker 3.40 0067  02.08.2006

@<TRIPOS>MOLECULE
ASD01912504
  41   44    0    0    0
SMALL
NO_CHARGES


@<TRIPOS>ATOM
   1 C1            -0.0611     1.3288     0.0622 C.2     
   2 O2            -0.0741    -0.0075     0.0898 O.3     
   3 N3             1.0613    -0.4338     0.1034 N.2     
   4 C4             1.9137     0.5577     0.0866 C.2     
   5 N5             1.1943     1.7023     0.0599 N.2     
   6 C6             3.3938     0.4473     0.0957 C.ar    
   7 C7             4.0012    -0.8061     0.1242 C.ar    
   8 C8             5.3782    -0.9029     0.1320 C.ar    
   9 C9             6.1545     0.2414     0.1121 C.ar    
  10 C10            5.5566     1.4886     0.0838 C.ar    
  11 C11            4.1809     1.5969     0.0700 C.ar    
  12 C12           -1.2646     2.2353     0.0327 C.3     
  13 C13           -2.2504     1.9956     1.1906 C.3     
  14 C14           -2.9519     0.9954     0.2539 C.3     
  15 N15           -2.3454     1.7604    -0.8529 N.am    
  16 C16           -2.6545     1.9494    -2.1511 C.2     
  17 C17           -3.7749     1.2034    -2.7598 C.ar    
  18 O18           -2.0112     2.7338    -2.8211 O.2     
  19 C19           -4.1881     1.4984    -4.0606 C.ar    
  20 C20           -5.2354     0.7976    -4.6245 C.ar    
  21 C21           -5.8764    -0.1981    -3.8998 C.ar    
  22 C22           -5.4687    -0.4934    -2.6083 C.ar    
  23 C23           -4.4205     0.1971    -2.0383 C.ar    
  24 F24           -6.9012    -0.8813    -4.4550 F       
  25 F25           -5.6373     1.0814    -5.8827 F       
  26 C26            6.0367    -2.2581     0.1628 C.3     
  27 H27            3.3959    -1.7003     0.1404 H       
  28 H28            7.2315     0.1611     0.1191 H       
  29 H29            6.1675     2.3791     0.0688 H       
  30 H30            3.7151     2.5710     0.0475 H       
  31 H31           -1.0040     3.2837    -0.1125 H       
  32 H32           -1.7951     1.5321     2.0658 H       
  33 H33           -2.8580     2.8663     1.4370 H       
  34 H34           -2.5770    -0.0245     0.3401 H       
  35 H35           -4.0399     1.0540     0.2840 H       
  36 H36           -3.6896     2.2732    -4.6242 H       
  37 H37           -5.9707    -1.2689    -2.0489 H       
  38 H38           -4.1043    -0.0345    -1.0319 H       
  39 H39            6.1998    -2.6061    -0.8572 H       
  40 H40            6.9938    -2.1854     0.6793 H       
  41 H41            5.3928    -2.9631     0.6885 H       
@<TRIPOS>BOND
   1    1    2 1
   2    1    5 2
   3    1   12 1
   4    2    3 1
   5    3    4 2
   6    4    5 1
   7    4    6 1
   8    6    7 ar
   9    6   11 ar
  10    7    8 ar
  11    7   27 1
  12    8    9 ar
  13    8   26 1
  14    9   10 ar
  15    9   28 1
  16   10   11 ar
  17   10   29 1
  18   11   30 1
  19   12   13 1
  20   12   15 1
  21   12   31 1
  22   13   14 1
  23   13   32 1
  24   13   33 1
  25   14   15 1
  26   14   34 1
  27   14   35 1
  28   15   16 am
  29   16   17 1
  30   16   18 2
  31   17   19 ar
  32   17   23 ar
  33   19   20 ar
  34   19   36 1
  35   20   21 ar
  36   20   25 1
  37   21   22 ar
  38   21   24 1
  39   22   23 ar
  40   22   37 1
  41   23   38 1
  42   26   39 1
  43   26   40 1
  44   26   41 1

#	End of record

