#	Name: ASD01911286
#	Creating user name:	WinNT
#	Creation time:	15. 06. 2019 19:57

#	Modifying user name:	WinNT
#	Modification time:	15. 06. 2019 19:57

#	Program:	/corina/corina34_cracker 3.40 0067  02.08.2006

@<TRIPOS>MOLECULE
ASD01911286
  30   32    0    0    0
SMALL
NO_CHARGES


@<TRIPOS>ATOM
   1 C1            -0.0167     1.3797     0.0096 C.ar    
   2 C2             0.0021    -0.0041     0.0020 C.ar    
   3 C3             1.2058    -0.6867    -0.0132 C.ar    
   4 C4             2.3967     0.0087    -0.0209 C.ar    
   5 C5             2.3859     1.4064    -0.0133 C.ar    
   6 C6             1.1661     2.0888     0.0021 C.ar    
   7 C7             3.6183     2.1356    -0.0207 C.1     
   8 C8             4.6286     2.7335    -0.0268 C.1     
   9 C9             5.8610     3.4627    -0.0342 C.ar    
  10 C10            5.8480     4.8614    -0.0266 C.ar    
  11 C11            7.0238     5.5606    -0.0341 C.ar    
  12 C12            8.2440     4.8793    -0.0491 C.ar    
  13 C13            8.2536     3.4724    -0.0567 C.ar    
  14 C14            7.0820     2.7771    -0.0433 C.ar    
  15 C15            7.2762     7.0495    -0.0285 C.3     
  16 C16            8.8006     7.2272    -0.0417 C.3     
  17 C17            9.3664     5.8281    -0.0544 C.2     
  18 O18           10.5439     5.5370    -0.0665 O.2     
  19 H19           -0.9600     1.9055     0.0170 H       
  20 H20           -0.9274    -0.5540     0.0083 H       
  21 H21            1.2126    -1.7666    -0.0187 H       
  22 H22            3.3354    -0.5254    -0.0324 H       
  23 H23            1.1499     3.1687     0.0077 H       
  24 H24            4.9068     5.3909    -0.0150 H       
  25 H25            9.1939     2.9412    -0.0682 H       
  26 H26            7.0948     1.6972    -0.0492 H       
  27 H27            6.8382     7.5070    -0.9156 H       
  28 H28            6.8548     7.4974     0.8714 H       
  29 H29            9.1100     7.7677    -0.9363 H       
  30 H30            9.1266     7.7581     0.8527 H       
@<TRIPOS>BOND
   1    1    2 ar
   2    1    6 ar
   3    1   19 1
   4    2    3 ar
   5    2   20 1
   6    3    4 ar
   7    3   21 1
   8    4    5 ar
   9    4   22 1
  10    5    6 ar
  11    5    7 1
  12    6   23 1
  13    7    8 3
  14    8    9 1
  15    9   10 ar
  16    9   14 ar
  17   10   11 ar
  18   10   24 1
  19   11   12 ar
  20   11   15 1
  21   12   13 ar
  22   12   17 1
  23   13   14 ar
  24   13   25 1
  25   14   26 1
  26   15   16 1
  27   15   27 1
  28   15   28 1
  29   16   17 1
  30   16   29 1
  31   16   30 1
  32   17   18 2

#	End of record

