#	Name: ASD00731019
#	Creating user name:	WinNT
#	Creation time:	15. 06. 2019 18:37

#	Modifying user name:	WinNT
#	Modification time:	15. 06. 2019 18:37

#	Program:	/corina/corina34_cracker 3.40 0067  02.08.2006

@<TRIPOS>MOLECULE
ASD00731019
 235  237    0    0    0
SMALL
NO_CHARGES


@<TRIPOS>ATOM
   1 C1            -0.1458     1.7189     0.7389 C.2     
   2 O2             0.0664     0.5479     0.5049 O.2     
   3 N3             2.2573     1.8904     1.0305 N.am    
   4 C4             1.0004     2.6424     1.0623 C.3     
   5 C5             1.0543     3.7696     0.0291 C.3     
   6 O6             1.1267     3.2095    -1.2836 O.3     
   7 C7            -3.6621     2.1006    -0.1847 C.2     
   8 O8            -3.7565     3.2836     0.0654 O.2     
   9 N9            -1.4060     2.1955     0.7042 N.am    
  10 C10           -2.5196     1.2991     0.3839 C.3     
  11 C11           -2.9811     0.5845     1.6556 C.3     
  12 C12           -1.8214    -0.2300     2.2324 C.3     
  13 O13           -3.4084     1.5515     2.6170 O.3     
  14 C14           -6.9988     1.4347    -1.1410 C.2     
  15 O15           -6.9048     0.3413    -0.6246 O.2     
  16 N16           -4.5789     1.5028    -0.9711 N.am    
  17 C17           -5.7597     2.2473    -1.4158 C.3     
  18 C18           -5.6532     2.5232    -2.9169 C.3     
  19 C19           -4.4515     3.3924    -3.1839 C.2     
  20 O20           -3.7245     3.7143    -2.2740 O.2     
  21 O21           -4.1886     3.8091    -4.4325 O.3     
  22 C22          -10.5102     1.5492    -2.1510 C.2     
  23 O23          -10.3042     2.4200    -2.9697 O.2     
  24 N24           -8.2114     1.9230    -1.4692 N.am    
  25 C25           -9.4159     1.1330    -1.2021 C.3     
  26 C26           -9.8725     1.3706     0.2387 C.3     
  27 C27           -8.8141     0.8338     1.2043 C.3     
  28 C28           -9.2707     1.0714     2.6451 C.3     
  29 N29           -8.2572     0.5573     3.5696 N.pl3   
  30 C30           -8.4498     0.6599     4.9270 C.2     
  31 N31           -7.5481     0.2025     5.7496 N.2     
  32 N32           -9.5935     1.2449     5.4168 N.pl3   
  33 C33          -14.1228     1.0490    -2.3989 C.2     
  34 O34          -14.1842     0.5406    -1.2995 O.2     
  35 N35          -11.7177     0.9538    -2.0898 N.am    
  36 C36          -12.7815     1.3584    -3.0122 C.3     
  37 C37          -12.6338     0.5926    -4.3285 C.3     
  38 C38          -11.3277     1.0015    -5.0126 C.3     
  39 C39          -11.1183     0.1469    -6.2643 C.3     
  40 C40          -11.3999     2.4775    -5.4089 C.3     
  41 C41          -17.5811     0.8589    -3.5682 C.2     
  42 O42          -17.2532     0.9724    -4.7303 O.2     
  43 N43          -15.2543     1.3373    -3.0721 N.am    
  44 C44          -16.5582     1.0365    -2.4759 C.3     
  45 C45          -16.9806     2.1904    -1.5643 C.3     
  46 C46          -16.0101     2.2909    -0.3858 C.3     
  47 C47          -16.4325     3.4449     0.5257 C.3     
  48 N48          -15.5033     3.5411     1.6542 N.pl3   
  49 C49          -15.6829     4.5111     2.6118 C.2     
  50 N50          -14.8562     4.5967     3.6158 N.2     
  51 N51          -16.7346     5.3907     2.5104 N.pl3   
  52 C52          -21.2276     0.7021    -3.7719 C.2     
  53 O53          -21.3622     1.0285    -2.6116 O.2     
  54 N54          -18.8603     0.5739    -3.2537 N.am    
  55 C55          -19.8547     0.4012    -4.3156 C.3     
  56 C56          -19.8124    -1.0411    -4.8243 C.3     
  57 C57          -18.4603    -1.3082    -5.4886 C.3     
  58 C58          -18.4180    -2.7505    -5.9973 C.3     
  59 C59          -17.0658    -3.0175    -6.6616 C.3     
  60 N60          -17.0252    -4.4024    -7.1500 N.3     
  61 C61          -24.6756     0.1727    -4.8648 C.2     
  62 O62          -24.3322    -0.5221    -5.7976 O.2     
  63 N63          -22.3059     0.6083    -4.5750 N.am    
  64 C64          -23.6406     0.9008    -4.0464 C.3     
  65 C65          -23.8994     2.4069    -4.1199 C.3     
  66 C66          -22.9419     3.1264    -3.2052 C.2     
  67 C67          -23.1798     3.5072    -1.9402 C.2     
  68 N68          -22.0770     4.1331    -1.4261 N.pl3   
  69 C69          -21.0770     4.1713    -2.3719 C.ar    
  70 C70          -19.7817     4.6778    -2.3759 C.ar    
  71 C71          -19.0038     4.5584    -3.5070 C.ar    
  72 C72          -19.4996     3.9371    -4.6447 C.ar    
  73 C73          -20.7696     3.4328    -4.6628 C.ar    
  74 C74          -21.5729     3.5372    -3.5259 C.ar    
  75 C75          -28.3076     0.3086    -5.2559 C.2     
  76 O76          -28.3980     1.3158    -4.5864 O.2     
  77 N77          -25.9828     0.2936    -4.5599 N.am    
  78 C78          -26.9890    -0.4142    -5.3555 C.3     
  79 C79          -27.1479    -1.8404    -4.8248 C.3     
  80 C80          -25.8448    -2.6128    -5.0402 C.3     
  81 S81          -26.0332    -4.3038    -4.4110 S.3     
  82 C82          -24.4140    -5.0481    -4.7502 C.3     
  83 C83          -31.3990     0.0824    -4.5776 C.2     
  84 O84          -30.9002    -0.7447    -3.8516 O.2     
  85 N85          -29.3864    -0.1643    -5.9109 N.am    
  86 C86          -30.6683     0.5384    -5.8141 C.3     
  87 C87          -31.5147     0.2279    -7.0503 C.3     
  88 C88          -30.8418     0.7929    -8.2747 C.ar    
  89 C89          -29.9392     0.0232    -8.9845 C.ar    
  90 C90          -29.3219     0.5414   -10.1076 C.ar    
  91 C91          -29.6076     1.8292   -10.5211 C.ar    
  92 C92          -30.5108     2.5985    -9.8118 C.ar    
  93 C93          -31.1313     2.0788    -8.6912 C.ar    
  94 O94          -32.6040     0.5950    -4.2826 O.3     
  95 C95            3.3173     2.3190     1.7441 C.2     
  96 O96            3.2306     3.3273     2.4125 O.2     
  97 C97           21.0297     0.9164     7.7015 C.3     
  98 C98           19.7170     1.7018     7.7347 C.3     
  99 C99           18.6840     1.0063     6.8458 C.3     
 100 C100          17.3714     1.7916     6.8789 C.3     
 101 C101          16.3384     1.0962     5.9900 C.3     
 102 C102          15.0258     1.8815     6.0232 C.3     
 103 C103          13.9928     1.1860     5.1343 C.3     
 104 C104          12.6801     1.9714     5.1675 C.3     
 105 C105          11.6471     1.2759     4.2786 C.3     
 106 C106          10.3345     2.0612     4.3118 C.3     
 107 C107           9.3015     1.3658     3.4229 C.3     
 108 C108           7.9888     2.1511     3.4560 C.3     
 109 C109           6.9558     1.4556     2.5671 C.3     
 110 C110           5.6432     2.2410     2.6003 C.3     
 111 C111           4.6102     1.5455     1.7114 C.3     
 112 H112           2.3266     1.0840     0.4959 H       
 113 H113           0.8559     3.0667     2.0558 H       
 114 H114           0.1572     4.3829     0.1135 H       
 115 H115           1.9345     4.3865     0.2100 H       
 116 H116           1.1638     3.8681    -1.9907 H       
 117 H117          -1.5756     3.1320     0.8913 H       
 118 H118          -2.1929     0.5615    -0.3491 H       
 119 H119          -3.8100    -0.0820     1.4175 H       
 120 H120          -1.0382     0.4458     2.5758 H       
 121 H121          -2.1789    -0.8278     3.0708 H       
 122 H122          -1.4209    -0.8883     1.4614 H       
 123 H123          -4.1428     2.1051     2.3183 H       
 124 H124          -4.4570     0.5796    -1.2426 H       
 125 H125          -5.8179     3.1924    -0.8759 H       
 126 H126          -5.5458     1.5802    -3.4529 H       
 127 H127          -6.5539     3.0340    -3.2572 H       
 128 H128          -3.4067     4.3649    -4.5543 H       
 129 H129          -8.2865     2.7974    -1.8822 H       
 130 H130          -9.1953     0.0750    -1.3435 H       
 131 H131         -10.0078     2.4393     0.4054 H       
 132 H132         -10.8167     0.8537     0.4105 H       
 133 H133          -8.6788    -0.2349     1.0375 H       
 134 H134          -7.8699     1.3507     1.0324 H       
 135 H135          -9.4060     2.1400     2.8118 H       
 136 H136         -10.2149     0.5545     2.8169 H       
 137 H137          -7.4503     0.1445     3.2241 H       
 138 H138          -7.6840     0.2749     6.7073 H       
 139 H139         -10.2645     1.5853     4.8046 H       
 140 H140          -9.7294     1.3173     6.3745 H       
 141 H141         -11.8825     0.2574    -1.4350 H       
 142 H142         -12.7081     2.4288    -3.2044 H       
 143 H143         -12.6181    -0.4783    -4.1260 H       
 144 H144         -13.4746     0.8267    -4.9814 H       
 145 H145         -10.4949     0.8500    -4.3258 H       
 146 H146         -11.9511     0.2984    -6.9511 H       
 147 H147         -10.1878     0.4382    -6.7516 H       
 148 H148         -11.0669    -0.9046    -5.9819 H       
 149 H149         -12.2326     2.6289    -6.0957 H       
 150 H150         -11.5490     3.0863    -4.5172 H       
 151 H151         -10.4694     2.7687    -5.8962 H       
 152 H152         -15.2053     1.7439    -3.9514 H       
 153 H153         -16.4876     0.1190    -1.8915 H       
 154 H154         -16.9653     3.1231    -2.1282 H       
 155 H155         -17.9883     2.0082    -1.1907 H       
 156 H156         -16.0255     1.3582     0.1780 H       
 157 H157         -15.0025     2.4731    -0.7594 H       
 158 H158         -16.4172     4.3776    -0.0381 H       
 159 H159         -17.4402     3.2627     0.8993 H       
 160 H160         -14.7613     2.9204     1.7257 H       
 161 H161         -14.9829     5.2810     4.2915 H       
 162 H162         -17.3499     5.3270     1.7632 H       
 163 H163         -16.8613     6.0751     3.1861 H       
 164 H164         -19.1226     0.4831    -2.3242 H       
 165 H165         -19.6317     1.0827    -5.1365 H       
 166 H166         -19.9474    -1.7258    -3.9869 H       
 167 H167         -20.6106    -1.1937    -5.5507 H       
 168 H168         -18.3253    -0.6235    -6.3259 H       
 169 H169         -17.6621    -1.1555    -4.7622 H       
 170 H170         -18.5529    -3.4352    -5.1600 H       
 171 H171         -19.2162    -2.9031    -6.7237 H       
 172 H172         -16.9309    -2.3329    -7.4989 H       
 173 H173         -16.2677    -2.8649    -5.9352 H       
 174 H174         -17.7944    -4.5876    -7.7763 H       
 175 H175         -16.1415    -4.6037    -7.5934 H       
 176 H176         -22.1983     0.3472    -5.5029 H       
 177 H177         -23.7006     0.5720    -3.0089 H       
 178 H178         -23.7523     2.7513    -5.1435 H       
 179 H179         -24.9236     2.6151    -3.8102 H       
 180 H180         -24.1049     3.3441    -1.4072 H       
 181 H181         -22.0097     4.4959    -0.5290 H       
 182 H182         -19.3870     5.1633    -1.4956 H       
 183 H183         -17.9983     4.9527    -3.5083 H       
 184 H184         -18.8768     3.8518    -5.5230 H       
 185 H185         -21.1488     2.9510    -5.5519 H       
 186 H186         -26.2575     0.8493    -3.8138 H       
 187 H187         -26.6707    -0.4476    -6.3974 H       
 188 H188         -27.3794    -1.8083    -3.7601 H       
 189 H189         -27.9578    -2.3384    -5.3579 H       
 190 H190         -25.6133    -2.6450    -6.1048 H       
 191 H191         -25.0349    -2.1149    -4.5071 H       
 192 H192         -24.4110    -6.0829    -4.4079 H       
 193 H193         -24.2183    -5.0193    -5.8221 H       
 194 H194         -23.6399    -4.4892    -4.2243 H       
 195 H195         -29.3141    -0.9698    -6.4464 H       
 196 H196         -30.4905     1.6122    -5.7559 H       
 197 H197         -31.6179    -0.8518    -7.1581 H       
 198 H198         -32.5011     0.6778    -6.9376 H       
 199 H199         -29.7160    -0.9829    -8.6614 H       
 200 H200         -28.6162    -0.0596   -10.6617 H       
 201 H201         -29.1248     2.2344   -11.3981 H       
 202 H202         -30.7337     3.6048   -10.1346 H       
 203 H203         -31.8398     2.6785    -8.1391 H       
 204 H204         -33.0339     0.2716    -3.4791 H       
 205 H205          20.8571    -0.0954     8.0683 H       
 206 H206          21.4015     0.8733     6.6778 H       
 207 H207          21.7656     1.4119     8.3348 H       
 208 H208          19.3452     1.7449     8.7584 H       
 209 H209          19.8896     2.7136     7.3678 H       
 210 H210          19.0559     0.9632     5.8221 H       
 211 H211          18.5115    -0.0055     7.2126 H       
 212 H212          16.9996     1.8348     7.9027 H       
 213 H213          17.5440     2.8035     6.5121 H       
 214 H214          16.7102     1.0530     4.9663 H       
 215 H215          16.1658     0.0844     6.3569 H       
 216 H216          14.6539     1.9247     7.0469 H       
 217 H217          15.1983     2.8933     5.6564 H       
 218 H218          14.3646     1.1429     4.1106 H       
 219 H219          13.8202     0.1742     5.5011 H       
 220 H220          12.3083     2.0145     6.1912 H       
 221 H221          12.8527     2.9832     4.8007 H       
 222 H222          12.0189     1.2328     3.2549 H       
 223 H223          11.4745     0.2641     4.6454 H       
 224 H224           9.9626     2.1044     5.3355 H       
 225 H225          10.5070     3.0731     3.9449 H       
 226 H226           9.6733     1.3226     2.3992 H       
 227 H227           9.1289     0.3540     3.7897 H       
 228 H228           7.6170     2.1943     4.4797 H       
 229 H229           8.1614     3.1629     3.0892 H       
 230 H230           7.3276     1.4125     1.5434 H       
 231 H231           6.7832     0.4438     2.9340 H       
 232 H232           5.2714     2.2841     3.6240 H       
 233 H233           5.8158     3.2528     2.2335 H       
 234 H234           4.4376     0.5337     2.0782 H       
 235 H235           4.9820     1.5024     0.6877 H       
@<TRIPOS>BOND
   1    1    2 2
   2    1    4 1
   3    1    9 am
   4    3   95 am
   5    3    4 1
   6    3  112 1
   7    4    5 1
   8    4  113 1
   9    5    6 1
  10    5  114 1
  11    5  115 1
  12    6  116 1
  13    7    8 2
  14    7   10 1
  15    7   16 am
  16    9   10 1
  17    9  117 1
  18   10   11 1
  19   10  118 1
  20   11   12 1
  21   11   13 1
  22   11  119 1
  23   12  120 1
  24   12  121 1
  25   12  122 1
  26   13  123 1
  27   14   15 2
  28   14   17 1
  29   14   24 am
  30   16   17 1
  31   16  124 1
  32   17   18 1
  33   17  125 1
  34   18   19 1
  35   18  126 1
  36   18  127 1
  37   19   20 2
  38   19   21 1
  39   21  128 1
  40   22   23 2
  41   22   25 1
  42   22   35 am
  43   24   25 1
  44   24  129 1
  45   25   26 1
  46   25  130 1
  47   26   27 1
  48   26  131 1
  49   26  132 1
  50   27   28 1
  51   27  133 1
  52   27  134 1
  53   28   29 1
  54   28  135 1
  55   28  136 1
  56   29   30 1
  57   29  137 1
  58   30   31 2
  59   30   32 1
  60   31  138 1
  61   32  139 1
  62   32  140 1
  63   33   34 2
  64   33   36 1
  65   33   43 am
  66   35   36 1
  67   35  141 1
  68   36   37 1
  69   36  142 1
  70   37   38 1
  71   37  143 1
  72   37  144 1
  73   38   39 1
  74   38   40 1
  75   38  145 1
  76   39  146 1
  77   39  147 1
  78   39  148 1
  79   40  149 1
  80   40  150 1
  81   40  151 1
  82   41   42 2
  83   41   44 1
  84   41   54 am
  85   43   44 1
  86   43  152 1
  87   44   45 1
  88   44  153 1
  89   45   46 1
  90   45  154 1
  91   45  155 1
  92   46   47 1
  93   46  156 1
  94   46  157 1
  95   47   48 1
  96   47  158 1
  97   47  159 1
  98   48   49 1
  99   48  160 1
 100   49   50 2
 101   49   51 1
 102   50  161 1
 103   51  162 1
 104   51  163 1
 105   52   53 2
 106   52   55 1
 107   52   63 am
 108   54   55 1
 109   54  164 1
 110   55   56 1
 111   55  165 1
 112   56   57 1
 113   56  166 1
 114   56  167 1
 115   57   58 1
 116   57  168 1
 117   57  169 1
 118   58   59 1
 119   58  170 1
 120   58  171 1
 121   59   60 1
 122   59  172 1
 123   59  173 1
 124   60  174 1
 125   60  175 1
 126   61   62 2
 127   61   64 1
 128   61   77 am
 129   63   64 1
 130   63  176 1
 131   64   65 1
 132   64  177 1
 133   65   66 1
 134   65  178 1
 135   65  179 1
 136   66   67 2
 137   66   74 1
 138   67   68 1
 139   67  180 1
 140   68   69 1
 141   68  181 1
 142   69   70 ar
 143   69   74 ar
 144   70   71 ar
 145   70  182 1
 146   71   72 ar
 147   71  183 1
 148   72   73 ar
 149   72  184 1
 150   73   74 ar
 151   73  185 1
 152   75   76 2
 153   75   78 1
 154   75   85 am
 155   77   78 1
 156   77  186 1
 157   78   79 1
 158   78  187 1
 159   79   80 1
 160   79  188 1
 161   79  189 1
 162   80   81 1
 163   80  190 1
 164   80  191 1
 165   81   82 1
 166   82  192 1
 167   82  193 1
 168   82  194 1
 169   83   84 2
 170   83   86 1
 171   83   94 1
 172   85   86 1
 173   85  195 1
 174   86   87 1
 175   86  196 1
 176   87   88 1
 177   87  197 1
 178   87  198 1
 179   88   89 ar
 180   88   93 ar
 181   89   90 ar
 182   89  199 1
 183   90   91 ar
 184   90  200 1
 185   91   92 ar
 186   91  201 1
 187   92   93 ar
 188   92  202 1
 189   93  203 1
 190   94  204 1
 191   95   96 2
 192   95  111 1
 193   97   98 1
 194   97  205 1
 195   97  206 1
 196   97  207 1
 197   98   99 1
 198   98  208 1
 199   98  209 1
 200   99  100 1
 201   99  210 1
 202   99  211 1
 203  100  101 1
 204  100  212 1
 205  100  213 1
 206  101  102 1
 207  101  214 1
 208  101  215 1
 209  102  103 1
 210  102  216 1
 211  102  217 1
 212  103  104 1
 213  103  218 1
 214  103  219 1
 215  104  105 1
 216  104  220 1
 217  104  221 1
 218  105  106 1
 219  105  222 1
 220  105  223 1
 221  106  107 1
 222  106  224 1
 223  106  225 1
 224  107  108 1
 225  107  226 1
 226  107  227 1
 227  108  109 1
 228  108  228 1
 229  108  229 1
 230  109  110 1
 231  109  230 1
 232  109  231 1
 233  110  111 1
 234  110  232 1
 235  110  233 1
 236  111  234 1
 237  111  235 1

#	End of record

