#	Name: ASD04910549
#	Creating user name:	WinNT
#	Creation time:	15. 06. 2019 20:56

#	Modifying user name:	WinNT
#	Modification time:	15. 06. 2019 20:56

#	Program:	/corina/corina34_cracker 3.40 0067  02.08.2006

@<TRIPOS>MOLECULE
ASD04910549
  62   65    0    0    0
SMALL
NO_CHARGES


@<TRIPOS>ATOM
   1 C1             0.1291     1.2521    -0.1063 C.ar    
   2 C2             0.3011    -0.1184    -0.0257 C.ar    
   3 C3            -0.7871    -0.9604    -0.1264 C.ar    
   4 C4            -2.0638    -0.4268    -0.3096 C.ar    
   5 C5            -2.2304     0.9566    -0.3897 C.ar    
   6 C6            -1.1344     1.7877    -0.2822 C.ar    
   7 C7            -3.2344    -1.3232    -0.4189 C.2     
   8 N8            -4.4659    -0.8048    -0.5957 N.am    
   9 O9            -3.0862    -2.5276    -0.3491 O.2     
  10 C10           -5.6259    -1.6931    -0.7040 C.3     
  11 C11           -6.8922    -0.8567    -0.8987 C.3     
  12 C12           -8.0854    -1.7704    -1.0101 C.2     
  13 O13           -9.3119    -1.2542    -1.1862 O.3     
  14 O14           -7.9381    -2.9676    -0.9408 O.2     
  15 C15            1.3225     2.1657     0.0040 C.3     
  16 C16            1.3998     2.7345     1.4223 C.3     
  17 N17            1.1870     3.2640    -0.9559 N.pl3   
  18 C18            2.6546     3.6129     1.5701 C.3     
  19 C19            0.1872     3.6493     1.6916 C.3     
  20 C20            0.7638     4.8006     2.5525 C.3     
  21 C21            2.1606     5.0308     1.9242 C.3     
  22 C22            1.5474     3.0721    -2.2934 C.ar    
  23 C23            1.3613     4.0894    -3.2274 C.ar    
  24 C24            1.7330     3.8549    -4.5395 C.ar    
  25 C25            2.2753     2.6222    -4.8799 C.ar    
  26 N26            2.4376     1.6784    -3.9671 N.ar    
  27 C27            2.1006     1.8677    -2.7067 C.ar    
  28 N28            2.6543     2.3756    -6.2044 N.pl3   
  29 N29            2.5440     3.2723    -7.2751 N.2     
  30 C30            3.2003     1.2257    -6.6802 C.2     
  31 C31            3.4198     1.3944    -8.0052 C.2     
  32 C32            3.0002     2.6842    -8.3514 C.2     
  33 C33            3.0626     3.2918    -9.7291 C.3     
  34 Cl34           4.1058     0.2200    -9.0841 Cl      
  35 H35            1.2895    -0.5300     0.1161 H       
  36 H36           -0.6514    -2.0300    -0.0640 H       
  37 H37           -3.2156     1.3758    -0.5314 H       
  38 H38           -1.2620     2.8583    -0.3440 H       
  39 H39           -4.5841     0.1563    -0.6514 H       
  40 H40           -5.4954    -2.3588    -1.5571 H       
  41 H41           -5.7173    -2.2840     0.2074 H       
  42 H42           -7.0227    -0.1910    -0.0456 H       
  43 H43           -6.8007    -0.2658    -1.8101 H       
  44 H44          -10.0462    -1.8798    -1.2521 H       
  45 H45            2.2312     1.6041    -0.2123 H       
  46 H46            1.4247     1.9226     2.1491 H       
  47 H47            0.8474     4.1244    -0.6638 H       
  48 H48            3.2879     3.2277     2.3693 H       
  49 H49            3.2084     3.6339     0.6315 H       
  50 H50           -0.2135     4.0371     0.7551 H       
  51 H51           -0.5828     3.1096     2.2427 H       
  52 H52            0.1478     5.6954     2.4633 H       
  53 H53            0.8547     4.4952     3.5949 H       
  54 H54            2.8307     5.4993     2.6451 H       
  55 H55            2.0786     5.6417     1.0252 H       
  56 H56            0.9367     5.0382    -2.9342 H       
  57 H57            1.6026     4.6207    -5.2897 H       
  58 H58            2.2478     1.0737    -1.9896 H       
  59 H59            3.4194     0.3381    -6.1053 H       
  60 H60            2.1365     3.0780   -10.2628 H       
  61 H61            3.1925     4.3708    -9.6448 H       
  62 H62            3.9038     2.8662   -10.2761 H       
@<TRIPOS>BOND
   1    1    2 ar
   2    1   15 1
   3    1    6 ar
   4    2    3 ar
   5    2   35 1
   6    3    4 ar
   7    3   36 1
   8    4    5 ar
   9    4    7 1
  10    5    6 ar
  11    5   37 1
  12    6   38 1
  13    7    8 am
  14    7    9 2
  15    8   10 1
  16    8   39 1
  17   10   11 1
  18   10   40 1
  19   10   41 1
  20   11   12 1
  21   11   42 1
  22   11   43 1
  23   12   13 1
  24   12   14 2
  25   13   44 1
  26   15   16 1
  27   15   17 1
  28   15   45 1
  29   16   18 1
  30   16   19 1
  31   16   46 1
  32   17   22 1
  33   17   47 1
  34   18   21 1
  35   18   48 1
  36   18   49 1
  37   19   20 1
  38   19   50 1
  39   19   51 1
  40   20   21 1
  41   20   52 1
  42   20   53 1
  43   21   54 1
  44   21   55 1
  45   22   23 ar
  46   22   27 ar
  47   23   24 ar
  48   23   56 1
  49   24   25 ar
  50   24   57 1
  51   25   26 ar
  52   25   28 1
  53   26   27 ar
  54   27   58 1
  55   28   29 1
  56   28   30 1
  57   29   32 2
  58   30   31 2
  59   30   59 1
  60   31   32 1
  61   31   34 1
  62   32   33 1
  63   33   60 1
  64   33   61 1
  65   33   62 1

#	End of record

