#	Name: ASD03950076
#	Creating user name:	WinNT
#	Creation time:	15. 06. 2019 20:48

#	Modifying user name:	WinNT
#	Modification time:	15. 06. 2019 20:48

#	Program:	/corina/corina34_cracker 3.40 0067  02.08.2006

@<TRIPOS>MOLECULE
ASD03950076
  66   69    0    0    0
SMALL
NO_CHARGES


@<TRIPOS>ATOM
   1 N1             0.0049     1.5092    -0.0239 N.am    
   2 C2             0.0187     0.0400    -0.0296 C.3     
   3 C3             0.8921    -0.4494     1.1299 C.3     
   4 C4             2.2775     0.1926     1.0260 C.3     
   5 C5             2.1457     1.7138     1.1292 C.3     
   6 C6             1.2865     2.2277    -0.0303 C.3     
   7 C7            -1.1612     2.1849    -0.0185 C.2     
   8 O8            -2.2145     1.5790    -0.0184 O.2     
   9 O9            -1.1590     3.5313    -0.0134 O.3     
  10 N10            3.9465    -0.7749     4.1590 N.pl3   
  11 N11            2.9191    -0.1796     3.4203 N.2     
  12 C12            3.1503    -0.3128     2.1458 C.2     
  13 C13            4.4081    -1.0409     1.9970 C.ar    
  14 C14            5.1514    -1.4706     0.8946 C.ar    
  15 C15            6.3406    -2.1592     1.0880 C.ar    
  16 C16            6.8006    -2.4267     2.3785 C.ar    
  17 C17            6.0730    -2.0066     3.4850 C.ar    
  18 C18            4.8661    -1.3067     3.3012 C.ar    
  19 C19            6.5635    -2.2930     4.8465 C.2     
  20 O20            5.9246    -1.9241     5.8130 O.2     
  21 N21            7.7198    -2.9636     5.0191 N.am    
  22 C22            7.1282    -2.6146    -0.0848 C.ar    
  23 C23            8.3222    -3.3059     0.1022 C.ar    
  24 C24            9.0533    -3.7285    -0.9975 C.ar    
  25 C25            8.5934    -3.4615    -2.2814 C.ar    
  26 C26            7.4084    -2.7754    -2.4658 C.ar    
  27 C27            6.6717    -2.3562    -1.3757 C.ar    
  28 N28           10.2542    -4.4233    -0.8145 N.am    
  29 C29           10.6076    -5.3969    -1.6769 C.2     
  30 O30            9.8422    -5.7373    -2.5540 O.2     
  31 C31           11.9538    -6.0625    -1.5514 C.3     
  32 C32           -2.4517     4.1925    -0.0078 C.3     
  33 C33           -3.2313     3.7779     1.2417 C.3     
  34 C34           -2.2488     5.7090    -0.0024 C.3     
  35 C35           -3.2372     3.7875    -1.2567 C.3     
  36 H36           -0.9971    -0.3355     0.0944 H       
  37 H37            0.4302    -0.3179    -0.9733 H       
  38 H38            0.4309    -0.1682     2.0767 H       
  39 H39            0.9891    -1.5339     1.0798 H       
  40 H40            2.7279    -0.0687     0.0685 H       
  41 H41            1.6727     1.9746     2.0760 H       
  42 H42            3.1348     2.1690     1.0786 H       
  43 H43            1.8013     2.0482    -0.9741 H       
  44 H44            1.1072     3.2958     0.0932 H       
  45 H45            3.9996    -0.8019     5.1272 H       
  46 H46            4.8007    -1.2675    -0.1065 H       
  47 H47            7.7273    -2.9637     2.5176 H       
  48 H48            8.2295    -3.2579     4.2480 H       
  49 H49            8.0423    -3.1519     5.9143 H       
  50 H50            8.6780    -3.5120     1.1008 H       
  51 H51            9.1639    -3.7909    -3.1372 H       
  52 H52            7.0552    -2.5699    -3.4655 H       
  53 H53            5.7436    -1.8241    -1.5236 H       
  54 H54           10.8323    -4.2042    -0.0670 H       
  55 H55           12.4972    -5.6279    -0.7124 H       
  56 H56           11.8167    -7.1304    -1.3814 H       
  57 H57           12.5212    -5.9107    -2.4696 H       
  58 H58           -2.6717     4.0664     2.1315 H       
  59 H59           -4.2017     4.2743     1.2459 H       
  60 H60           -3.3759     2.6975     1.2379 H       
  61 H61           -1.6934     6.0044    -0.8926 H       
  62 H62           -3.2192     6.2054     0.0018 H       
  63 H63           -1.6893     5.9976     0.8874 H       
  64 H64           -3.3817     2.7071    -1.2606 H       
  65 H65           -4.2076     4.2839    -1.2526 H       
  66 H66           -2.6818     4.0829    -2.1469 H       
@<TRIPOS>BOND
   1    1    2 1
   2    1    6 1
   3    1    7 am
   4    2    3 1
   5    2   36 1
   6    2   37 1
   7    3    4 1
   8    3   38 1
   9    3   39 1
  10    4    5 1
  11    4   12 1
  12    4   40 1
  13    5    6 1
  14    5   41 1
  15    5   42 1
  16    6   43 1
  17    6   44 1
  18    7    8 2
  19    7    9 1
  20    9   32 1
  21   10   11 1
  22   10   18 1
  23   10   45 1
  24   11   12 2
  25   12   13 1
  26   13   14 ar
  27   13   18 ar
  28   14   15 ar
  29   14   46 1
  30   15   16 ar
  31   15   22 1
  32   16   17 ar
  33   16   47 1
  34   17   18 ar
  35   17   19 1
  36   19   20 2
  37   19   21 am
  38   21   48 1
  39   21   49 1
  40   22   23 ar
  41   22   27 ar
  42   23   24 ar
  43   23   50 1
  44   24   25 ar
  45   24   28 1
  46   25   26 ar
  47   25   51 1
  48   26   27 ar
  49   26   52 1
  50   27   53 1
  51   28   29 am
  52   28   54 1
  53   29   30 2
  54   29   31 1
  55   31   55 1
  56   31   56 1
  57   31   57 1
  58   32   33 1
  59   32   34 1
  60   32   35 1
  61   33   58 1
  62   33   59 1
  63   33   60 1
  64   34   61 1
  65   34   62 1
  66   34   63 1
  67   35   64 1
  68   35   65 1
  69   35   66 1

#	End of record

