#	Name: ASD01150948
#	Creating user name:	WinNT
#	Creation time:	15. 06. 2019 19:05

#	Modifying user name:	WinNT
#	Modification time:	15. 06. 2019 19:05

#	Program:	/corina/corina34_cracker 3.40 0067  02.08.2006

@<TRIPOS>MOLECULE
ASD01150948
  52   54    0    0    0
SMALL
NO_CHARGES


@<TRIPOS>ATOM
   1 N1            -0.0168     1.3855     0.0097 N.am    
   2 C2             0.0021    -0.0041     0.0020 C.2     
   3 N3             1.0916    -0.7760    -0.0121 N.2     
   4 C4             0.7451    -2.0470    -0.0150 C.2     
   5 N5            -0.6122    -2.1434    -0.0025 N.pl3   
   6 C6            -1.1096    -0.8380     0.0138 C.2     
   7 C7            -2.4630    -0.4466     0.0311 C.2     
   8 O8            -3.4367    -1.3825     0.0331 O.3     
   9 O9            -2.7548     0.7358     0.0442 O.2     
  10 C10           -4.7866    -0.9142     0.0511 C.3     
  11 S11            1.8635    -3.4084    -0.0331 S.3     
  12 C12            3.4403    -2.5196    -0.0437 C.3     
  13 C13           -1.3655    -3.3243    -0.0011 C.ar    
  14 C14           -1.3016    -4.1890     1.0835 C.ar    
  15 C15           -2.0456    -5.3526     1.0818 C.ar    
  16 C16           -2.8536    -5.6569     0.0016 C.ar    
  17 C17           -2.9190    -4.7980    -1.0802 C.ar    
  18 C18           -2.1821    -3.6299    -1.0819 C.ar    
  19 C19           -5.0449    -0.0549    -1.1883 C.3     
  20 C20           -5.7413    -2.1098     0.0507 C.3     
  21 C21           -5.0191    -0.0763     1.3100 C.3     
  22 C22            1.1411     2.0752     0.0023 C.2     
  23 O23            2.2020     1.4817    -0.0110 O.2     
  24 C24            1.1211     3.5518     0.0104 C.ar    
  25 C25            2.3196     4.2690     0.0028 C.ar    
  26 C26            2.2950     5.6471     0.0100 C.ar    
  27 C27            1.0835     6.3214     0.0252 C.ar    
  28 C28           -0.1092     5.6144     0.0332 C.ar    
  29 C29           -0.0964     4.2362     0.0199 C.ar    
  30 F30            1.0652     7.6723     0.0326 F       
  31 H31           -0.8633     1.8590     0.0162 H       
  32 H32            3.4958    -1.8889    -0.9310 H       
  33 H33            3.5132    -1.8983     0.8489 H       
  34 H34            4.2613    -3.2365    -0.0555 H       
  35 H35           -0.6706    -3.9521     1.9273 H       
  36 H36           -1.9961    -6.0258     1.9249 H       
  37 H37           -3.4344    -6.5674     0.0027 H       
  38 H38           -3.5503    -5.0388    -1.9227 H       
  39 H39           -2.2339    -2.9593    -1.9269 H       
  40 H40           -4.8793    -0.6518    -2.0851 H       
  41 H41           -6.0746     0.3023    -1.1746 H       
  42 H42           -4.3648     0.7969    -1.1880 H       
  43 H43           -5.5573    -2.7219     0.9336 H       
  44 H44           -6.7710    -1.7526     0.0644 H       
  45 H45           -5.5756    -2.7067    -0.8462 H       
  46 H46           -4.3390     0.7755     1.3103 H       
  47 H47           -6.0488     0.2809     1.3237 H       
  48 H48           -4.8351    -0.6884     2.1929 H       
  49 H49            3.2637     3.7448    -0.0083 H       
  50 H50            3.2211     6.2027     0.0041 H       
  51 H51           -1.0500     6.1446     0.0454 H       
  52 H52           -1.0260     3.6864     0.0261 H       
@<TRIPOS>BOND
   1    1    2 1
   2    1   22 am
   3    1   31 1
   4    2    3 1
   5    2    6 2
   6    3    4 2
   7    4    5 1
   8    4   11 1
   9    5    6 1
  10    5   13 1
  11    6    7 1
  12    7    8 1
  13    7    9 2
  14    8   10 1
  15   10   19 1
  16   10   20 1
  17   10   21 1
  18   11   12 1
  19   12   32 1
  20   12   33 1
  21   12   34 1
  22   13   14 ar
  23   13   18 ar
  24   14   15 ar
  25   14   35 1
  26   15   16 ar
  27   15   36 1
  28   16   17 ar
  29   16   37 1
  30   17   18 ar
  31   17   38 1
  32   18   39 1
  33   19   40 1
  34   19   41 1
  35   19   42 1
  36   20   43 1
  37   20   44 1
  38   20   45 1
  39   21   46 1
  40   21   47 1
  41   21   48 1
  42   22   23 2
  43   22   24 1
  44   24   25 ar
  45   24   29 ar
  46   25   26 ar
  47   25   49 1
  48   26   27 ar
  49   26   50 1
  50   27   28 ar
  51   27   30 1
  52   28   29 ar
  53   28   51 1
  54   29   52 1

#	End of record

