#	Name: ASD01811379
#	Creating user name:	WinNT
#	Creation time:	15. 06. 2019 19:26

#	Modifying user name:	WinNT
#	Modification time:	15. 06. 2019 19:26

#	Program:	/corina/corina34_cracker 3.40 0067  02.08.2006

@<TRIPOS>MOLECULE
ASD01811379
  22   22    0    0    0
SMALL
NO_CHARGES


@<TRIPOS>ATOM
   1 C1            -0.1307     1.4668    -0.0656 C.2     
   2 C2            -0.0516    -0.0071    -0.0345 C.ar    
   3 C3            -1.2173    -0.7836    -0.0486 C.ar    
   4 C4            -1.0885    -2.1606    -0.0181 C.ar    
   5 C5             0.1751    -2.7226     0.0250 C.ar    
   6 N6             1.2569    -1.9678     0.0379 N.ar    
   7 C7             1.1878    -0.6519     0.0038 C.ar    
   8 O8             0.8870     2.1301    -0.0530 O.2     
   9 O9            -1.3313     2.0761    -0.1137 O.3     
  10 N10           -2.2906    -3.0241    -0.0309 N.pl3   
  11 O11           -2.2788    -4.0753    -0.6461 O.2     
  12 O12           -3.2916    -2.6836     0.5738 O.2     
  13 C13            0.3179    -4.2225     0.0584 C.3     
  14 Cl14           2.6475     0.2878     0.0142 Cl      
  15 C15           -1.3331     3.5278    -0.1421 C.3     
  16 H16           -2.1918    -0.3191    -0.0821 H       
  17 H17            0.2790    -4.6138    -0.9582 H       
  18 H18            1.2727    -4.4865     0.5130 H       
  19 H19           -0.4947    -4.6519     0.6443 H       
  20 H20           -0.8467     3.9094     0.7557 H       
  21 H21           -0.7932     3.8747    -1.0231 H       
  22 H22           -2.3607     3.8892    -0.1800 H       
@<TRIPOS>BOND
   1    1    2 1
   2    1    8 2
   3    1    9 1
   4    2    3 ar
   5    2    7 ar
   6    3    4 ar
   7    3   16 1
   8    4    5 ar
   9    4   10 1
  10    5    6 ar
  11    5   13 1
  12    6    7 ar
  13    7   14 1
  14    9   15 1
  15   10   11 2
  16   10   12 2
  17   13   17 1
  18   13   18 1
  19   13   19 1
  20   15   20 1
  21   15   21 1
  22   15   22 1

#	End of record

