#	Name: ASD04230049
#	Creating user name:	WinNT
#	Creation time:	15. 06. 2019 20:48

#	Modifying user name:	WinNT
#	Modification time:	15. 06. 2019 20:48

#	Program:	/corina/corina34_cracker 3.40 0067  02.08.2006

@<TRIPOS>MOLECULE
ASD04230049
  40   42    0    0    0
SMALL
NO_CHARGES


@<TRIPOS>ATOM
   1 N1             0.1899     1.4927     0.6600 N.pl3   
   2 C2             1.2899    -1.9712     0.0662 C.ar    
   3 C3             1.3319    -0.6056     0.3348 C.ar    
   4 C4             0.1529     0.1225     0.3905 C.ar    
   5 C5            -1.0657    -0.5118     0.1785 C.ar    
   6 C6            -1.1060    -1.8670    -0.0875 C.ar    
   7 C7             0.0636    -2.5988    -0.1446 C.ar    
   8 C8             2.5480    -2.7552    -0.0009 C.ar    
   9 C9             2.7993    -3.7559     0.9359 C.ar    
  10 C10            3.9710    -4.4818     0.8688 C.ar    
  11 C11            4.8955    -4.2175    -0.1258 C.ar    
  12 C12            4.6515    -3.2252    -1.0578 C.ar    
  13 C13            3.4797    -2.4974    -1.0041 C.ar    
  14 S14            1.6234    -4.0931     2.2040 S.o2    
  15 O15            0.3556    -4.1668     1.5664 O.2     
  16 O16            2.1648    -5.1518     2.9820 O.2     
  17 N17            1.5735    -2.7651     3.1920 N.am    
  18 C18            0.6375    -1.6604     2.9294 C.3     
  19 C19           -0.1240    -1.3538     4.2241 C.3     
  20 O20            0.8129    -1.1534     5.2851 O.3     
  21 C21            1.6129    -2.3000     5.5837 C.3     
  22 C22            2.4595    -2.6575     4.3619 C.3     
  23 H23            1.0403     1.9351     0.8082 H       
  24 H24           -0.6346     2.0025     0.6949 H       
  25 H25            2.2798    -0.1149     0.4992 H       
  26 H26           -1.9833     0.0561     0.2220 H       
  27 H27           -2.0552    -2.3555    -0.2511 H       
  28 H28            0.0281    -3.6578    -0.3534 H       
  29 H29            4.1667    -5.2575     1.5943 H       
  30 H30            5.8113    -4.7878    -0.1744 H       
  31 H31            5.3769    -3.0225    -1.8317 H       
  32 H32            3.2878    -1.7263    -1.7355 H       
  33 H33            1.1917    -0.7773     2.6116 H       
  34 H34           -0.0662    -1.9529     2.1501 H       
  35 H35           -0.7211    -0.4517     4.0904 H       
  36 H36           -0.7777    -2.1910     4.4689 H       
  37 H37            2.2656    -2.0786     6.4282 H       
  38 H38            0.9656    -3.1406     5.8335 H       
  39 H39            2.9618    -3.6100     4.5308 H       
  40 H40            3.2003    -1.8765     4.1909 H       
@<TRIPOS>BOND
   1    1    4 1
   2    1   23 1
   3    1   24 1
   4    2    3 ar
   5    2    7 ar
   6    2    8 1
   7    3    4 ar
   8    3   25 1
   9    4    5 ar
  10    5    6 ar
  11    5   26 1
  12    6    7 ar
  13    6   27 1
  14    7   28 1
  15    8    9 ar
  16    8   13 ar
  17    9   10 ar
  18    9   14 1
  19   10   11 ar
  20   10   29 1
  21   11   12 ar
  22   11   30 1
  23   12   13 ar
  24   12   31 1
  25   13   32 1
  26   14   15 2
  27   14   16 2
  28   14   17 am
  29   17   18 1
  30   17   22 1
  31   18   19 1
  32   18   33 1
  33   18   34 1
  34   19   20 1
  35   19   35 1
  36   19   36 1
  37   20   21 1
  38   21   22 1
  39   21   37 1
  40   21   38 1
  41   22   39 1
  42   22   40 1

#	End of record

