#	Name: ASD01917428
#	Creating user name:	WinNT
#	Creation time:	15. 06. 2019 20:09

#	Modifying user name:	WinNT
#	Modification time:	15. 06. 2019 20:09

#	Program:	/corina/corina34_cracker 3.40 0067  02.08.2006

@<TRIPOS>MOLECULE
ASD01917428
  37   39    0    0    0
SMALL
NO_CHARGES


@<TRIPOS>ATOM
   1 C1            -0.0902     1.6545     0.1413 C.3     
   2 C2             0.1211     0.1379    -0.0104 C.3     
   3 C3             1.1367    -0.3309     1.0334 C.3     
   4 C4             0.6742     0.0595     2.4385 C.3     
   5 C5             0.4391     1.5794     2.4849 C.3     
   6 C6             1.6441     2.2556     1.7910 C.3     
   7 C7             1.3051     2.3037     0.2902 C.3     
   8 C8            -0.7469     1.8760     1.5295 C.3     
   9 C9            -0.8860     2.2434    -0.9949 C.2     
  10 O10           -0.4041     3.1179    -1.6835 O.2     
  11 N11           -2.1332     1.7984    -1.2458 N.am    
  12 C12           -4.2838     2.5300    -2.0823 C.ar    
  13 C13           -2.9086     2.4112    -2.2367 C.ar    
  14 C14           -2.3128     2.9111    -3.3916 C.ar    
  15 C15           -3.1222     3.5096    -4.3436 C.ar    
  16 C16           -4.4835     3.5903    -4.1180 C.ar    
  17 N17           -5.0172     3.1068    -3.0130 N.ar    
  18 N18            0.2222     2.0743     3.8509 N.3     
  19 H19           -0.8258    -0.3795     0.1440 H       
  20 H20            0.4983    -0.0796    -1.0096 H       
  21 H21            1.2393    -1.4145     0.9755 H       
  22 H22            2.1025     0.1316     0.8301 H       
  23 H23           -0.2543    -0.4605     2.6745 H       
  24 H24            1.4409    -0.2133     3.1637 H       
  25 H25            1.7802     3.2658     2.1769 H       
  26 H26            2.5476     1.6676     1.9523 H       
  27 H27            2.0436     1.7391    -0.2789 H       
  28 H28            1.2761     3.3374    -0.0543 H       
  29 H29           -1.0899     2.9048     1.6400 H       
  30 H30           -1.5645     1.1736     1.6917 H       
  31 H31           -2.4933     1.0534    -0.7397 H       
  32 H32           -4.7574     2.1419    -1.1927 H       
  33 H33           -1.2460     2.8346    -3.5415 H       
  34 H34           -2.6944     3.9087    -5.2514 H       
  35 H35           -5.1190     4.0558    -4.8568 H       
  36 H36            1.0155     1.8697     4.4398 H       
  37 H37            0.0183     3.0625     3.8493 H       
@<TRIPOS>BOND
   1    1    2 1
   2    1    7 1
   3    1    8 1
   4    1    9 1
   5    2    3 1
   6    2   19 1
   7    2   20 1
   8    3    4 1
   9    3   21 1
  10    3   22 1
  11    4    5 1
  12    4   23 1
  13    4   24 1
  14    5    6 1
  15    5    8 1
  16    5   18 1
  17    6    7 1
  18    6   25 1
  19    6   26 1
  20    7   27 1
  21    7   28 1
  22    8   29 1
  23    8   30 1
  24    9   10 2
  25    9   11 am
  26   11   13 1
  27   11   31 1
  28   12   13 ar
  29   12   17 ar
  30   12   32 1
  31   13   14 ar
  32   14   15 ar
  33   14   33 1
  34   15   16 ar
  35   15   34 1
  36   16   17 ar
  37   16   35 1
  38   18   36 1
  39   18   37 1

#	End of record

