#	Name: ASD01812125
#	Creating user name:	WinNT
#	Creation time:	15. 06. 2019 19:28

#	Modifying user name:	WinNT
#	Modification time:	15. 06. 2019 19:28

#	Program:	/corina/corina34_cracker 3.40 0067  02.08.2006

@<TRIPOS>MOLECULE
ASD01812125
  50   54    0    0    0
SMALL
NO_CHARGES


@<TRIPOS>ATOM
   1 C1            -0.0918     1.3075    -0.1349 C.ar    
   2 C2            -0.0428    -0.0828    -0.1398 C.ar    
   3 C3             1.1493    -0.7429    -0.1088 C.ar    
   4 C4             2.3481    -0.0144    -0.0713 C.ar    
   5 C5             2.2943     1.4008    -0.0665 C.ar    
   6 C6             1.0543     2.0468    -0.0989 C.ar    
   7 C7             3.5967    -0.6700    -0.0392 C.ar    
   8 C8             4.7552     0.0308    -0.0035 C.ar    
   9 C9             4.7575     1.4344     0.0029 C.ar    
  10 C10            3.5468     2.1501    -0.0274 C.ar    
  11 C11            6.0074     2.2045     0.0405 C.2     
  12 N12            5.9084     3.5541     0.0430 N.am    
  13 C13            4.6929     4.1554     0.0120 C.2     
  14 N14            3.5733     3.4934    -0.0219 N.2     
  15 O15            7.0913     1.6499     0.0688 O.2     
  16 C16            3.6424    -2.1763    -0.0442 C.3     
  17 C17            3.5367    -2.6867     1.3698 C.ar    
  18 C18            2.3039    -3.0323     1.9006 C.ar    
  19 C19            2.2536    -3.4978     3.2056 C.ar    
  20 C20            3.4272    -3.6016     3.9303 C.ar    
  21 N21            4.5843    -3.2631     3.3930 N.ar    
  22 C22            4.6698    -2.8217     2.1522 C.ar    
  23 C23            7.1233     4.3721     0.0797 C.3     
  24 C24            7.1102     5.2519     1.3336 C.3     
  25 C25            8.3455     6.1576     1.3213 C.3     
  26 C26            8.3505     6.9833     0.0321 C.3     
  27 O27            8.3311     6.1047    -1.0948 O.3     
  28 C28            7.1755     5.2667    -1.1615 C.3     
  29 O29            7.1356     4.4246     2.4984 O.3     
  30 Cl30           6.2198    -2.3915     1.4993 Cl      
  31 Cl31           3.3776    -4.1831     5.5652 Cl      
  32 H32           -1.0486     1.8076    -0.1644 H       
  33 H33           -0.9630    -0.6475    -0.1682 H       
  34 H34            1.1712    -1.8227    -0.1128 H       
  35 H35            1.0042     3.1256    -0.0957 H       
  36 H36            5.6951    -0.5006     0.0209 H       
  37 H37            4.6525     5.2346     0.0158 H       
  38 H38            2.8108    -2.5631    -0.6332 H       
  39 H39            4.5835    -2.5098    -0.4815 H       
  40 H40            1.4033    -2.9406     1.3116 H       
  41 H41            1.3097    -3.7756     3.6510 H       
  42 H42            7.9995     3.7239     0.0987 H       
  43 H43            6.2088     5.8648     1.3396 H       
  44 H44            8.3157     6.8260     2.1818 H       
  45 H45            9.2464     5.5455     1.3653 H       
  46 H46            7.4697     7.6249     0.0080 H       
  47 H47            9.2496     7.5985    -0.0021 H       
  48 H48            7.2282     4.6453    -2.0555 H       
  49 H49            6.2793     5.8859    -1.2012 H       
  50 H50            7.1290     4.9169     3.3307 H       
@<TRIPOS>BOND
   1    1    2 ar
   2    1    6 ar
   3    1   32 1
   4    2    3 ar
   5    2   33 1
   6    3    4 ar
   7    3   34 1
   8    4    5 ar
   9    4    7 ar
  10    5    6 ar
  11    5   10 ar
  12    6   35 1
  13    7    8 ar
  14    7   16 1
  15    8    9 ar
  16    8   36 1
  17    9   10 ar
  18    9   11 1
  19   10   14 1
  20   11   12 am
  21   11   15 2
  22   12   13 1
  23   12   23 1
  24   13   14 2
  25   13   37 1
  26   16   17 1
  27   16   38 1
  28   16   39 1
  29   17   18 ar
  30   17   22 ar
  31   18   19 ar
  32   18   40 1
  33   19   20 ar
  34   19   41 1
  35   20   21 ar
  36   20   31 1
  37   21   22 ar
  38   22   30 1
  39   23   24 1
  40   23   28 1
  41   23   42 1
  42   24   25 1
  43   24   29 1
  44   24   43 1
  45   25   26 1
  46   25   44 1
  47   25   45 1
  48   26   27 1
  49   26   46 1
  50   26   47 1
  51   27   28 1
  52   28   48 1
  53   28   49 1
  54   29   50 1

#	End of record

