#	Name: ASD05940014
#	Creating user name:	WinNT
#	Creation time:	15. 06. 2019 21:04

#	Modifying user name:	WinNT
#	Modification time:	15. 06. 2019 21:04

#	Program:	/corina/corina34_cracker 3.40 0067  02.08.2006

@<TRIPOS>MOLECULE
ASD05940014
  57   60    0    0    0
SMALL
NO_CHARGES


@<TRIPOS>ATOM
   1 N1            -0.0159     1.3181     0.0093 N.ar    
   2 C2             0.0021    -0.0041     0.0020 C.ar    
   3 N3             1.1319    -0.6930    -0.0101 N.ar    
   4 C4             2.3066    -0.0681    -0.0158 C.ar    
   5 C5             2.3274     1.3257    -0.0126 C.ar    
   6 C6             1.1197     2.0168     0.0022 C.ar    
   7 N7             3.4912    -0.7843    -0.0194 N.3     
   8 C8             4.5325    -0.1239    -0.8126 C.3     
   9 C9             4.6626     1.3202    -0.4024 C.2     
  10 N10            3.5574     2.0048    -0.0283 N.am    
  11 N11            1.0976     3.4049     0.0085 N.pl3   
  12 O12           -1.1750    -0.6756     0.0076 O.3     
  13 C13            3.2722    -2.1617    -0.4807 C.3     
  14 O14            5.7473     1.8634    -0.4080 O.2     
  15 C15           -2.3694     0.1089     0.0211 C.3     
  16 C16           -3.5876    -0.8168     0.0256 C.3     
  17 C17           -4.8663     0.0231     0.0401 C.3     
  18 C18           -6.0845    -0.9026     0.0446 C.3     
  19 C19            4.6022    -2.8335    -0.7061 C.ar    
  20 C20            5.2290    -3.5289     0.3192 C.ar    
  21 C21            6.4472    -4.1332     0.0804 C.ar    
  22 N22            7.0193    -4.0569    -1.1061 N.ar    
  23 C23            6.4534    -3.4032    -2.1091 C.ar    
  24 C24            5.2234    -2.7760    -1.9408 C.ar    
  25 N25            7.0917    -3.3482    -3.3428 N.3     
  26 C26            8.3683    -4.0763    -3.3084 C.3     
  27 C27            9.0073    -4.0411    -4.6993 C.3     
  28 O28            9.1708    -2.6807    -5.1089 O.3     
  29 C29            7.9471    -1.9420    -5.1541 C.3     
  30 C30            7.2973    -1.9559    -3.7679 C.3     
  31 H31            5.4840    -0.6315    -0.6537 H       
  32 H32            4.2697    -0.1768    -1.8692 H       
  33 H33            3.6126     2.9403     0.2223 H       
  34 H34            1.9298     3.9032     0.0026 H       
  35 H35            0.2500     3.8765     0.0188 H       
  36 H36            2.7102    -2.7125     0.2736 H       
  37 H37            2.7096    -2.1471    -1.4142 H       
  38 H38           -2.3840     0.7330     0.9146 H       
  39 H39           -2.3979     0.7426    -0.8653 H       
  40 H40           -3.5729    -1.4409    -0.8679 H       
  41 H41           -3.5591    -1.4505     0.9120 H       
  42 H42           -4.8810     0.6473     0.9336 H       
  43 H43           -4.8948     0.6569    -0.8463 H       
  44 H44           -6.0698    -1.5267    -0.8489 H       
  45 H45           -6.0560    -1.5363     0.9309 H       
  46 H46           -6.9955    -0.3042     0.0549 H       
  47 H47            4.7685    -3.5961     1.2938 H       
  48 H48            6.9382    -4.6752     0.8751 H       
  49 H49            4.7638    -2.2435    -2.7604 H       
  50 H50            9.0372    -3.6046    -2.5886 H       
  51 H51            8.1894    -5.1111    -3.0162 H       
  52 H52            9.9807    -4.5305    -4.6651 H       
  53 H53            8.3631    -4.5601    -5.4090 H       
  54 H54            8.1536    -0.9132    -5.4489 H       
  55 H55            7.2720    -2.3999    -5.8771 H       
  56 H56            6.3366    -1.4428    -3.8111 H       
  57 H57            7.9491    -1.4503    -3.0554 H       
@<TRIPOS>BOND
   1    1    2 ar
   2    1    6 ar
   3    2    3 ar
   4    2   12 1
   5    3    4 ar
   6    4    5 ar
   7    4    7 1
   8    5    6 ar
   9    5   10 1
  10    6   11 1
  11    7    8 1
  12    7   13 1
  13    8    9 1
  14    8   31 1
  15    8   32 1
  16    9   10 am
  17    9   14 2
  18   10   33 1
  19   11   34 1
  20   11   35 1
  21   12   15 1
  22   13   19 1
  23   13   36 1
  24   13   37 1
  25   15   16 1
  26   15   38 1
  27   15   39 1
  28   16   17 1
  29   16   40 1
  30   16   41 1
  31   17   18 1
  32   17   42 1
  33   17   43 1
  34   18   44 1
  35   18   45 1
  36   18   46 1
  37   19   20 ar
  38   19   24 ar
  39   20   21 ar
  40   20   47 1
  41   21   22 ar
  42   21   48 1
  43   22   23 ar
  44   23   24 ar
  45   23   25 1
  46   24   49 1
  47   25   26 1
  48   25   30 1
  49   26   27 1
  50   26   50 1
  51   26   51 1
  52   27   28 1
  53   27   52 1
  54   27   53 1
  55   28   29 1
  56   29   30 1
  57   29   54 1
  58   29   55 1
  59   30   56 1
  60   30   57 1

#	End of record

