#	Name: ASD05720314
#	Creating user name:	WinNT
#	Creation time:	15. 06. 2019 21:02

#	Modifying user name:	WinNT
#	Modification time:	15. 06. 2019 21:02

#	Program:	/corina/corina34_cracker 3.40 0067  02.08.2006

@<TRIPOS>MOLECULE
ASD05720314
  61   65    0    0    0
SMALL
NO_CHARGES


@<TRIPOS>ATOM
   1 N1            -0.0459     1.5293    -0.6506 N.am    
   2 C2            -0.0981     0.2084    -1.2819 C.3     
   3 C3             1.1032     2.2336    -0.6554 C.2     
   4 O4             2.0965     1.7727    -1.1837 O.2     
   5 N5             1.1512     3.4489    -0.0745 N.am    
   6 C6             2.3678     4.1272     0.0259 C.ar    
   7 C7             2.3999     5.5135    -0.0782 C.ar    
   8 C8             3.5986     6.1854     0.0200 C.ar    
   9 C9             4.7816     5.4732     0.2246 C.ar    
  10 C10            4.7462     4.0816     0.3292 C.ar    
  11 C11            3.5439     3.4155     0.2354 C.ar    
  12 C12            7.4541     7.9357    -0.2997 C.ar    
  13 N13            6.3005     7.2859    -0.3895 N.ar    
  14 C14            6.0706     6.1918     0.3300 C.ar    
  15 C15            7.0844     5.7325     1.1965 C.ar    
  16 C16            8.2926     6.4568     1.2572 C.ar    
  17 N17            8.4315     7.5412     0.4988 N.ar    
  18 N18            9.0880     5.8098     2.1567 N.pl3   
  19 N19            8.3847     4.7020     2.6463 N.2     
  20 C20            7.2083     4.6471     2.0898 C.2     
  21 C21           10.4443     6.2056     2.5440 C.3     
  22 C22           10.4994     6.4888     4.0554 C.3     
  23 C23           11.5158     5.4942     4.6534 C.3     
  24 C24           12.4270     5.1180     3.4588 C.3     
  25 C25           11.4291     5.0487     2.2762 C.3     
  26 N26            7.6435     9.0663    -1.0756 N.3     
  27 C27            9.0726     9.2936    -1.3354 C.3     
  28 C28            9.2325    10.5156    -2.2436 C.3     
  29 O29            8.6076    11.6455    -1.6286 O.3     
  30 C30            7.2150    11.4588    -1.3620 C.3     
  31 C31            7.0346    10.2463    -0.4448 C.3     
  32 C32            9.6686     8.0640    -2.0236 C.3     
  33 H33           -0.8395     1.8988    -0.2325 H       
  34 H34           -1.1017    -0.2043    -1.1786 H       
  35 H35            0.1495     0.3011    -2.3394 H       
  36 H36            0.6190    -0.4544    -0.7976 H       
  37 H37            0.3407     3.8523     0.2738 H       
  38 H38            1.4843     6.0640    -0.2365 H       
  39 H39            3.6230     7.2620    -0.0616 H       
  40 H40            5.6599     3.5279     0.4871 H       
  41 H41            3.5153     2.3393     0.3202 H       
  42 H42            6.4548     3.8971     2.2797 H       
  43 H43           10.7479     7.0918     1.9867 H       
  44 H44           10.8305     7.5122     4.2317 H       
  45 H45            9.5170     6.3318     4.5008 H       
  46 H46           12.0979     5.9713     5.4418 H       
  47 H47           11.0049     4.6108     5.0365 H       
  48 H48           13.1769     5.8901     3.2867 H       
  49 H49           12.8991     4.1493     3.6230 H       
  50 H50           10.9042     4.0934     2.2754 H       
  51 H51           11.9480     5.2008     1.3298 H       
  52 H52            9.5902     9.4705    -0.3926 H       
  53 H53           10.2924    10.7222    -2.3925 H       
  54 H54            8.7608    10.3180    -3.2062 H       
  55 H55            6.8157    12.3475    -0.8732 H       
  56 H56            6.6846    11.2886    -2.2989 H       
  57 H57            5.9716    10.0658    -0.2850 H       
  58 H58            7.5197    10.4385     0.5122 H       
  59 H59            9.2120     7.9402    -3.0056 H       
  60 H60           10.7445     8.1971    -2.1374 H       
  61 H61            9.4741     7.1787    -1.4182 H       
@<TRIPOS>BOND
   1    1    2 1
   2    1    3 am
   3    1   33 1
   4    2   34 1
   5    2   35 1
   6    2   36 1
   7    3    4 2
   8    3    5 am
   9    5    6 1
  10    5   37 1
  11    6    7 ar
  12    6   11 ar
  13    7    8 ar
  14    7   38 1
  15    8    9 ar
  16    8   39 1
  17    9   10 ar
  18    9   14 1
  19   10   11 ar
  20   10   40 1
  21   11   41 1
  22   12   13 ar
  23   12   17 ar
  24   12   26 1
  25   13   14 ar
  26   14   15 ar
  27   15   16 ar
  28   15   20 1
  29   16   17 ar
  30   16   18 1
  31   18   19 1
  32   18   21 1
  33   19   20 2
  34   20   42 1
  35   21   22 1
  36   21   25 1
  37   21   43 1
  38   22   23 1
  39   22   44 1
  40   22   45 1
  41   23   24 1
  42   23   46 1
  43   23   47 1
  44   24   25 1
  45   24   48 1
  46   24   49 1
  47   25   50 1
  48   25   51 1
  49   26   27 1
  50   26   31 1
  51   27   28 1
  52   27   32 1
  53   27   52 1
  54   28   29 1
  55   28   53 1
  56   28   54 1
  57   29   30 1
  58   30   31 1
  59   30   55 1
  60   30   56 1
  61   31   57 1
  62   31   58 1
  63   32   59 1
  64   32   60 1
  65   32   61 1

#	End of record

