#	Name: ASD04590537
#	Creating user name:	WinNT
#	Creation time:	15. 06. 2019 20:51

#	Modifying user name:	WinNT
#	Modification time:	15. 06. 2019 20:51

#	Program:	/corina/corina34_cracker 3.40 0067  02.08.2006

@<TRIPOS>MOLECULE
ASD04590537
  52   55    0    0    0
SMALL
NO_CHARGES


@<TRIPOS>ATOM
   1 C1            -0.0167     1.3834     0.0096 C.ar    
   2 C2             0.0021    -0.0041     0.0020 C.ar    
   3 C3             2.3948     0.0191    -0.0208 C.ar    
   4 C4             2.3756     1.4249    -0.0130 C.ar    
   5 C5             1.1624     2.0987     0.0022 C.ar    
   6 N6             3.6952    -0.3636    -0.0357 N.2     
   7 C7             4.4664     0.6967    -0.0377 C.2     
   8 N8             3.6970     1.8290    -0.0239 N.pl3   
   9 C9             5.9437     0.6731    -0.0517 C.2     
  10 C10            6.7565    -0.4840    -0.0656 C.2     
  11 C11            8.0504    -0.0800    -0.0755 C.2     
  12 N12            8.0626     1.2789    -0.0682 N.pl3   
  13 N13            6.7358     1.7273    -0.0591 N.2     
  14 N14            6.3043    -1.8134    -0.0682 N.am    
  15 C15            7.1923    -2.8272    -0.0821 C.2     
  16 O16            8.3851    -2.5907    -0.0924 O.2     
  17 C17            1.1863    -0.6848    -0.0130 C.ar    
  18 C18            6.7172    -4.2238    -0.0849 C.ar    
  19 C19            7.6370    -5.2811    -0.0993 C.ar    
  20 C20            7.1790    -6.5904    -0.1018 C.ar    
  21 C21            5.8229    -6.8493    -0.0906 C.ar    
  22 C22            4.9104    -5.8068    -0.0767 C.ar    
  23 C23            5.3478    -4.5002    -0.0673 C.ar    
  24 C24            5.3324    -8.2742    -0.0939 C.3     
  25 C25            5.8600    -8.9981     1.1465 C.3     
  26 C26            3.8025    -8.2869    -0.0796 C.3     
  27 C27            5.8366    -8.9842    -1.3518 C.3     
  28 O28            8.9691    -5.0252    -0.1113 O.3     
  29 C29            9.8463    -6.1532    -0.1257 C.3     
  30 H30           -0.9614     1.9069     0.0170 H       
  31 H31           -0.9290    -0.5513     0.0084 H       
  32 H32            1.1417     3.1785     0.0079 H       
  33 H33            4.0192     2.7439    -0.0225 H       
  34 H34            8.9175    -0.7237    -0.0869 H       
  35 H35            8.8532     1.8409    -0.0726 H       
  36 H36            5.3529    -2.0021    -0.0600 H       
  37 H37            1.1893    -1.7648    -0.0185 H       
  38 H38            7.8841    -7.4083    -0.1130 H       
  39 H39            3.8516    -6.0194    -0.0687 H       
  40 H40            4.6329    -3.6907    -0.0565 H       
  41 H41            5.5007    -8.4922     2.0427 H       
  42 H42            5.5051   -10.0287     1.1441 H       
  43 H43            6.9499    -8.9890     1.1364 H       
  44 H44            3.4266    -7.7711    -0.9633 H       
  45 H45            3.4476    -9.3175    -0.0820 H       
  46 H46            3.4433    -7.7810     0.8166 H       
  47 H47            6.9265    -8.9752    -1.3620 H       
  48 H48            5.4817   -10.0149    -1.3542 H       
  49 H49            5.4607    -8.4685    -2.2355 H       
  50 H50           10.8805    -5.8091    -0.1342 H       
  51 H51            9.6726    -6.7599     0.7630 H       
  52 H52            9.6549    -6.7510    -1.0168 H       
@<TRIPOS>BOND
   1    1    2 ar
   2    1    5 ar
   3    1   30 1
   4    2   17 ar
   5    2   31 1
   6    3    4 ar
   7    3    6 1
   8    3   17 ar
   9    4    5 ar
  10    4    8 1
  11    5   32 1
  12    6    7 2
  13    7    8 1
  14    7    9 1
  15    8   33 1
  16    9   10 1
  17    9   13 2
  18   10   11 2
  19   10   14 1
  20   11   12 1
  21   11   34 1
  22   12   13 1
  23   12   35 1
  24   14   15 am
  25   14   36 1
  26   15   16 2
  27   15   18 1
  28   17   37 1
  29   18   19 ar
  30   18   23 ar
  31   19   20 ar
  32   19   28 1
  33   20   21 ar
  34   20   38 1
  35   21   22 ar
  36   21   24 1
  37   22   23 ar
  38   22   39 1
  39   23   40 1
  40   24   25 1
  41   24   26 1
  42   24   27 1
  43   25   41 1
  44   25   42 1
  45   25   43 1
  46   26   44 1
  47   26   45 1
  48   26   46 1
  49   27   47 1
  50   27   48 1
  51   27   49 1
  52   28   29 1
  53   29   50 1
  54   29   51 1
  55   29   52 1

#	End of record

