#	Name: ASD03080048
#	Creating user name:	WinNT
#	Creation time:	15. 06. 2019 20:26

#	Modifying user name:	WinNT
#	Modification time:	15. 06. 2019 20:26

#	Program:	/corina/corina34_cracker 3.40 0067  02.08.2006

@<TRIPOS>MOLECULE
ASD03080048
  33   35    0    0    0
SMALL
NO_CHARGES


@<TRIPOS>ATOM
   1 C1            -0.0168     1.3858     0.0097 C.ar    
   2 C2             0.0021    -0.0041     0.0020 C.ar    
   3 C3             1.2304    -0.6622    -0.0133 C.ar    
   4 C4             2.3965     0.1108    -0.0203 C.ar    
   5 C5             2.2922     1.4854    -0.0119 C.ar    
   6 N6             1.1124     2.0771     0.0026 N.ar    
   7 N7            -1.2342     2.0571     0.0191 N.pl3   
   8 O8             0.6710    -4.1178    -0.0260 O.3     
   9 N9             0.2833    -2.9687    -0.0161 N.2     
  10 C10            1.2998    -2.1458    -0.0214 C.2     
  11 N11            2.4231    -2.8930    -0.0362 N.2     
  12 C12            2.0127    -4.1472    -0.0389 C.2     
  13 C13            4.2579    -5.2380    -0.0651 C.ar    
  14 C14            2.8671    -5.3536    -0.0528 C.ar    
  15 C15            2.2949    -6.6309    -0.0534 C.ar    
  16 C16            3.1389    -7.7278    -0.0662 C.ar    
  17 C17            4.5075    -7.5287    -0.0779 C.ar    
  18 N18            5.0189    -6.3124    -0.0766 N.ar    
  19 C19           -2.4854     1.3035     0.1315 C.3     
  20 C20           -1.2658     3.5182    -0.0834 C.3     
  21 H21           -0.9207    -0.5652     0.0082 H       
  22 H22            3.3666    -0.3636    -0.0318 H       
  23 H23            3.1890     2.0871    -0.0169 H       
  24 H24            4.7137    -4.2589    -0.0693 H       
  25 H25            1.2224    -6.7574    -0.0438 H       
  26 H26            2.7330    -8.7286    -0.0667 H       
  27 H27            5.1684    -8.3828    -0.0879 H       
  28 H28           -2.7477     1.1894     1.1833 H       
  29 H29           -3.2808     1.8407    -0.3851 H       
  30 H30           -2.3588     0.3196    -0.3202 H       
  31 H31           -0.2473     3.8993    -0.1584 H       
  32 H32           -1.8284     3.8081    -0.9708 H       
  33 H33           -1.7451     3.9343     0.8027 H       
@<TRIPOS>BOND
   1    1    2 ar
   2    1    6 ar
   3    1    7 1
   4    2    3 ar
   5    2   21 1
   6    3    4 ar
   7    3   10 1
   8    4    5 ar
   9    4   22 1
  10    5    6 ar
  11    5   23 1
  12    7   19 1
  13    7   20 1
  14    8    9 1
  15    8   12 1
  16    9   10 2
  17   10   11 1
  18   11   12 2
  19   12   14 1
  20   13   14 ar
  21   13   18 ar
  22   13   24 1
  23   14   15 ar
  24   15   16 ar
  25   15   25 1
  26   16   17 ar
  27   16   26 1
  28   17   18 ar
  29   17   27 1
  30   19   28 1
  31   19   29 1
  32   19   30 1
  33   20   31 1
  34   20   32 1
  35   20   33 1

#	End of record

