#	Name: ASD01884979
#	Creating user name:	WinNT
#	Creation time:	15. 06. 2019 19:49

#	Modifying user name:	WinNT
#	Modification time:	15. 06. 2019 19:49

#	Program:	/corina/corina34_cracker 3.40 0067  02.08.2006

@<TRIPOS>MOLECULE
ASD01884979
  46   50    0    0    0
SMALL
NO_CHARGES


@<TRIPOS>ATOM
   1 C1             0.0042     1.3755    -0.2253 C.ar    
   2 C2             0.0228    -0.0024    -0.2334 C.ar    
   3 C3             1.2202    -0.6840    -0.0133 C.ar    
   4 C4             2.3959     0.0318     0.2146 C.ar    
   5 C5             2.3720     1.4096     0.2217 C.ar    
   6 C6             1.1774     2.0866     0.0020 C.ar    
   7 C7             1.2429    -2.1650    -0.0210 C.2     
   8 C8             1.9495    -2.8472    -0.9939 C.2     
   9 C9             0.5459    -2.8962     0.9718 C.2     
  10 C10            0.5683    -4.2420     0.9632 C.2     
  11 N11            1.2592    -4.9239     0.0032 N.pl3   
  12 C12            1.9526    -4.2522    -0.9746 C.2     
  13 C13            1.4533    -6.2485    -0.2472 C.2     
  14 N14            2.2100    -6.3419    -1.3099 N.2     
  15 N15            2.5119    -5.1703    -1.7479 N.2     
  16 C16            0.8977    -7.3973     0.5545 C.3     
  17 C17            1.0710    -8.8062    -0.0164 C.3     
  18 C18            1.8986    -8.3633     1.1918 C.3     
  19 N19            1.1557     3.4814     0.0102 N.3     
  20 C20           -0.0944     3.9870     0.6065 C.3     
  21 C21            0.2989     4.9048     1.7831 C.3     
  22 C22            1.7526     5.3183     1.4331 C.3     
  23 C23            2.2967     4.0245     0.7777 C.3     
  24 F24           -0.5354     6.0266     1.8357 F       
  25 F25            0.2620     4.2021     2.9923 F       
  26 C26            2.7046    -2.0953    -2.0594 C.3     
  27 F27            4.0401    -1.9490    -1.6693 F       
  28 F28            2.6456    -2.8066    -3.2627 F       
  29 F29            2.1291    -0.8324    -2.2356 F       
  30 H30           -0.9216     1.9036    -0.4001 H       
  31 H31           -0.8887    -0.5542    -0.4097 H       
  32 H32            3.3239    -0.4935     0.3856 H       
  33 H33            3.2818     1.9642     0.3980 H       
  34 H34           -0.0052    -2.3720     1.7386 H       
  35 H35            0.0335    -4.7892     1.7254 H       
  36 H36           -0.0188    -7.1864     1.1054 H       
  37 H37            0.2682    -9.5224     0.1587 H       
  38 H38            1.5868    -8.9022    -0.9719 H       
  39 H39            2.9588    -8.1678     1.0313 H       
  40 H40            1.6403    -8.7881     2.1618 H       
  41 H41           -0.6558     4.5550    -0.1353 H       
  42 H42           -0.6949     3.1536     0.9710 H       
  43 H43            1.7631     6.1482     0.7265 H       
  44 H44            2.3153     5.5666     2.3330 H       
  45 H45            2.6115     3.3149     1.5428 H       
  46 H46            3.1265     4.2573     0.1103 H       
@<TRIPOS>BOND
   1    1    2 ar
   2    1    6 ar
   3    1   30 1
   4    2    3 ar
   5    2   31 1
   6    3    4 ar
   7    3    7 1
   8    4    5 ar
   9    4   32 1
  10    5    6 ar
  11    5   33 1
  12    6   19 1
  13    7    8 2
  14    7    9 1
  15    8   26 1
  16    8   12 1
  17    9   10 2
  18    9   34 1
  19   10   11 1
  20   10   35 1
  21   11   12 1
  22   11   13 1
  23   12   15 2
  24   13   14 2
  25   13   16 1
  26   14   15 1
  27   16   18 1
  28   16   17 1
  29   16   36 1
  30   17   18 1
  31   17   37 1
  32   17   38 1
  33   18   39 1
  34   18   40 1
  35   19   20 1
  36   19   23 1
  37   20   21 1
  38   20   41 1
  39   20   42 1
  40   21   22 1
  41   21   24 1
  42   21   25 1
  43   22   23 1
  44   22   43 1
  45   22   44 1
  46   23   45 1
  47   23   46 1
  48   26   27 1
  49   26   28 1
  50   26   29 1

#	End of record

