#	Name: ASD05303033
#	Creating user name:	WinNT
#	Creation time:	15. 06. 2019 20:58

#	Modifying user name:	WinNT
#	Modification time:	15. 06. 2019 20:58

#	Program:	/corina/corina34_cracker 3.40 0067  02.08.2006

@<TRIPOS>MOLECULE
ASD05303033
  40   43    0    0    0
SMALL
NO_CHARGES


@<TRIPOS>ATOM
   1 C1             0.1607     0.8105     1.9046 C.ar    
   2 C2             0.2972    -0.5510     1.7099 C.ar    
   3 C3             1.4465    -1.0557     1.1273 C.ar    
   4 C4             2.4575    -0.1939     0.7405 C.ar    
   5 C5             2.3219     1.1794     0.9322 C.ar    
   6 C6             1.1680     1.6758     1.5180 C.ar    
   7 O7             3.3075     2.0296     0.5469 O.3     
   8 N8             3.6358    -0.6921     0.1545 N.am    
   9 C9             4.5426     1.5439     0.2620 C.ar    
  10 C10            4.7362     0.1795     0.0573 C.ar    
  11 C11            5.9964    -0.3101    -0.2373 C.ar    
  12 C12            7.0691     0.5597    -0.3268 C.ar    
  13 C13            6.8810     1.9135    -0.1221 C.ar    
  14 C14            5.6231     2.4073     0.1722 C.ar    
  15 C15            3.7080    -1.9597    -0.2976 C.2     
  16 O16            4.7900    -2.4563    -0.5452 O.2     
  17 N17            2.5809    -2.6770    -0.4752 N.am    
  18 H18            1.7151    -2.2630    -0.3338 H       
  19 C19            2.6632    -4.0820    -0.8820 C.3     
  20 C20            1.2733    -4.6502    -1.0100 C.ar    
  21 C21            0.6066    -4.5794    -2.2189 C.ar    
  22 C22           -0.6682    -5.1004    -2.3369 C.ar    
  23 C23           -1.2769    -5.6928    -1.2448 C.ar    
  24 C24           -0.6091    -5.7633    -0.0352 C.ar    
  25 C25            0.6678    -5.2470     0.0801 C.ar    
  26 Cl26          -2.8783    -6.3468    -1.3921 Cl      
  27 H27           -0.7390     1.2011     2.3568 H       
  28 H28           -0.4935    -1.2214     2.0129 H       
  29 H29            1.5542    -2.1195     0.9752 H       
  30 H30            1.0553     2.7387     1.6723 H       
  31 H31            6.1425    -1.3682    -0.3967 H       
  32 H32            8.0538     0.1802    -0.5564 H       
  33 H33            7.7208     2.5891    -0.1914 H       
  34 H34            5.4824     3.4663     0.3306 H       
  35 H35            3.1746    -4.1530    -1.8420 H       
  36 H36            3.2184    -4.6454    -0.1321 H       
  37 H37            1.0817    -4.1167    -3.0713 H       
  38 H38           -1.1891    -5.0447    -3.2813 H       
  39 H39           -1.0838    -6.2256     0.8177 H       
  40 H40            1.1892    -5.3020     1.0243 H       
@<TRIPOS>BOND
   1    1    2 ar
   2    1    6 ar
   3    1   27 1
   4    2    3 ar
   5    2   28 1
   6    3    4 ar
   7    3   29 1
   8    4    5 ar
   9    4    8 1
  10    5    6 ar
  11    5    7 1
  12    6   30 1
  13    7    9 1
  14    8   10 1
  15    8   15 am
  16    9   10 ar
  17    9   14 ar
  18   10   11 ar
  19   11   12 ar
  20   11   31 1
  21   12   13 ar
  22   12   32 1
  23   13   14 ar
  24   13   33 1
  25   14   34 1
  26   15   16 2
  27   15   17 am
  28   17   18 1
  29   17   19 1
  30   19   20 1
  31   19   35 1
  32   19   36 1
  33   20   21 ar
  34   20   25 ar
  35   21   22 ar
  36   21   37 1
  37   22   23 ar
  38   22   38 1
  39   23   24 ar
  40   23   26 1
  41   24   25 ar
  42   24   39 1
  43   25   40 1

#	End of record

