#	Name: ASD01913470
#	Creating user name:	WinNT
#	Creation time:	15. 06. 2019 20:01

#	Modifying user name:	WinNT
#	Modification time:	15. 06. 2019 20:01

#	Program:	/corina/corina34_cracker 3.40 0067  02.08.2006

@<TRIPOS>MOLECULE
ASD01913470
  35   37    0    0    0
SMALL
NO_CHARGES


@<TRIPOS>ATOM
   1 C1             0.9892     0.0184    -1.1286 C.ar    
   2 C2             0.1031     0.0054    -0.0562 C.ar    
   3 C3             0.4431     0.7189     1.0885 C.ar    
   4 N4             1.5888     1.3797     1.1165 N.ar    
   5 C5             2.4021     1.3676     0.0795 C.ar    
   6 N6             2.1156     0.7038    -1.0224 N.ar    
   7 C7            -1.0005    -2.0394    -0.1996 C.ar    
   8 N8             0.1780    -2.6346    -0.2944 N.ar    
   9 C9             0.2909    -3.9484    -0.3638 C.ar    
  10 C10           -0.8247    -4.7571    -0.3398 C.ar    
  11 C11           -2.0881    -4.1718    -0.2407 C.ar    
  12 C12           -2.1696    -2.7845    -0.1696 C.ar    
  13 N13           -3.2400    -4.9578    -0.2140 N.am    
  14 C14           -4.2966    -4.5799     0.5324 C.2     
  15 O15           -1.0649    -0.6862    -0.1254 O.3     
  16 C16           -5.4818    -5.4575     0.6336 C.ar    
  17 C17           -5.5083    -6.6788    -0.0437 C.ar    
  18 C18           -6.6146    -7.5000     0.0495 C.ar    
  19 C19           -7.7013    -7.1209     0.8117 C.ar    
  20 C20           -7.6884    -5.9016     1.4947 C.ar    
  21 C21           -6.5728    -5.0708     1.4095 C.ar    
  22 O22           -4.2750    -3.5173     1.1224 O.2     
  23 C23           -8.8165    -5.5096     2.2849 C.1     
  24 N24           -9.7114    -5.1987     2.9118 N.1     
  25 H25            0.7628    -0.5269    -2.0329 H       
  26 H26           -0.2187     0.7335     1.9418 H       
  27 H27            3.3300     1.9174     0.1343 H       
  28 H28            1.2710    -4.3954    -0.4407 H       
  29 H29           -0.7228    -5.8307    -0.3974 H       
  30 H30           -3.1293    -2.2953    -0.0918 H       
  31 H31           -3.2805    -5.7765    -0.7327 H       
  32 H32           -4.6616    -6.9814    -0.6421 H       
  33 H33           -6.6298    -8.4431    -0.4765 H       
  34 H34           -8.5635    -7.7677     0.8801 H       
  35 H35           -6.5575    -4.1276     1.9352 H       
@<TRIPOS>BOND
   1    1    2 ar
   2    1    6 ar
   3    1   25 1
   4    2    3 ar
   5    2   15 1
   6    3    4 ar
   7    3   26 1
   8    4    5 ar
   9    5    6 ar
  10    5   27 1
  11    7    8 ar
  12    7   12 ar
  13    7   15 1
  14    8    9 ar
  15    9   10 ar
  16    9   28 1
  17   10   11 ar
  18   10   29 1
  19   11   12 ar
  20   11   13 1
  21   12   30 1
  22   13   14 am
  23   13   31 1
  24   14   16 1
  25   14   22 2
  26   16   17 ar
  27   16   21 ar
  28   17   18 ar
  29   17   32 1
  30   18   19 ar
  31   18   33 1
  32   19   20 ar
  33   19   34 1
  34   20   21 ar
  35   20   23 1
  36   21   35 1
  37   23   24 3

#	End of record

