#	Name: ASD08070223
#	Creating user name:	WinNT
#	Creation time:	15. 06. 2019 21:14

#	Modifying user name:	WinNT
#	Modification time:	15. 06. 2019 21:14

#	Program:	/corina/corina34_cracker 3.40 0067  02.08.2006

@<TRIPOS>MOLECULE
ASD08070223
  35   36    0    0    0
SMALL
NO_CHARGES


@<TRIPOS>ATOM
   1 C1            -0.0180     1.4731     0.0101 C.ar    
   2 C2             0.0021    -0.0041     0.0020 C.2     
   3 N3            -1.1558    -0.6938     0.0094 N.am    
   4 O4             1.0630    -0.5975    -0.0113 O.2     
   5 C5             1.1801     2.1898     0.0026 C.ar    
   6 C6             1.1570     3.5685     0.0097 C.ar    
   7 C7            -0.0527     4.2441     0.0244 C.ar    
   8 C8            -1.2481     3.5373     0.0320 C.ar    
   9 C9            -1.2356     2.1572     0.0196 C.ar    
  10 F10           -2.4245     4.2013     0.0463 F       
  11 F11           -0.0693     5.5950     0.0318 F       
  12 C12           -1.1360    -2.1586     0.0013 C.3     
  13 C13           -2.4304    -2.6896     0.6205 C.3     
  14 C14           -1.0171    -2.6591    -1.4396 C.3     
  15 C15           -0.9963    -4.1890    -1.4480 C.3     
  16 C16           -2.2907    -4.7200    -0.8288 C.3     
  17 C17           -2.4096    -4.2195     0.6121 C.3     
  18 C18           -2.5493    -2.1891     2.0614 C.3     
  19 H19           -2.0023    -0.2203     0.0200 H       
  20 H20            2.1240     1.6650    -0.0085 H       
  21 H21            2.0838     4.1229     0.0042 H       
  22 H22           -2.1652     1.6075     0.0255 H       
  23 H23           -0.2837    -2.5136     0.5807 H       
  24 H24           -3.2826    -2.3346     0.0410 H       
  25 H25           -1.8693    -2.3041    -2.0190 H       
  26 H26           -0.0949    -2.2808    -1.8807 H       
  27 H27           -0.9116    -4.5455    -2.4746 H       
  28 H28           -0.1441    -4.5440    -0.8686 H       
  29 H29           -3.1430    -4.3650    -1.4083 H       
  30 H30           -2.2760    -5.8099    -0.8348 H       
  31 H31           -1.5574    -4.5745     1.1915 H       
  32 H32           -3.3318    -4.5978     1.0532 H       
  33 H33           -2.5641    -1.0992     2.0674 H       
  34 H34           -3.4715    -2.5674     2.5025 H       
  35 H35           -1.6970    -2.5441     2.6408 H       
@<TRIPOS>BOND
   1    1    2 1
   2    1    5 ar
   3    1    9 ar
   4    2    3 am
   5    2    4 2
   6    3   12 1
   7    3   19 1
   8    5    6 ar
   9    5   20 1
  10    6    7 ar
  11    6   21 1
  12    7    8 ar
  13    7   11 1
  14    8    9 ar
  15    8   10 1
  16    9   22 1
  17   12   13 1
  18   12   14 1
  19   12   23 1
  20   13   18 1
  21   13   17 1
  22   13   24 1
  23   14   15 1
  24   14   25 1
  25   14   26 1
  26   15   16 1
  27   15   27 1
  28   15   28 1
  29   16   17 1
  30   16   29 1
  31   16   30 1
  32   17   31 1
  33   17   32 1
  34   18   33 1
  35   18   34 1
  36   18   35 1

#	End of record

