#	Name: ASD05313118
#	Creating user name:	WinNT
#	Creation time:	15. 06. 2019 20:58

#	Modifying user name:	WinNT
#	Modification time:	15. 06. 2019 20:58

#	Program:	/corina/corina34_cracker 3.40 0067  02.08.2006

@<TRIPOS>MOLECULE
ASD05313118
  37   40    0    0    0
SMALL
NO_CHARGES


@<TRIPOS>ATOM
   1 C1            -0.0722     0.8191     1.0227 C.2     
   2 C2             0.1135    -0.6175     0.5959 C.3     
   3 N3             0.9292     1.7315     1.0489 N.pl3   
   4 N4             1.4568    -0.7178    -0.0054 N.am    
   5 C5             2.5709    -0.0358     0.6705 C.3     
   6 C6             2.3161     1.4763     0.6631 C.3     
   7 N7            -0.9049     2.6425     1.7062 N.2     
   8 N8            -1.1581     1.4105     1.4249 N.2     
   9 C9             0.3711     2.8917     1.4930 C.2     
  10 C10            2.9869     5.4462     1.6293 C.ar    
  11 N11            2.3678     4.2988     1.4468 N.ar    
  12 C12            1.0645     4.1818     1.6994 C.ar    
  13 C13            0.3633     5.3002     2.1628 C.ar    
  14 C14            1.0587     6.4829     2.3384 C.ar    
  15 N15            2.3541     6.5176     2.0647 N.ar    
  16 C16            1.6574    -1.4148    -1.1413 C.2     
  17 O17            2.7494    -1.4049    -1.6757 O.2     
  18 C18            0.5506    -2.1907    -1.7371 C.ar    
  19 C19            0.3195    -2.1391    -3.1143 C.ar    
  20 C20           -0.7180    -2.8684    -3.6648 C.ar    
  21 C21           -1.5268    -3.6482    -2.8523 C.ar    
  22 C22           -1.3008    -3.7012    -1.4870 C.ar    
  23 C23           -0.2652    -2.9831    -0.9271 C.ar    
  24 F24           -0.9443    -2.8209    -4.9959 F       
  25 Cl25          -2.8285    -4.5614    -3.5491 Cl      
  26 Cl26           1.3319    -1.1617    -4.1309 Cl      
  27 H27            0.0438    -1.2749     1.4625 H       
  28 H28           -0.6444    -0.8880    -0.1394 H       
  29 H29            2.6428    -0.3878     1.6996 H       
  30 H30            3.5017    -0.2507     0.1455 H       
  31 H31            2.4943     1.8708    -0.3373 H       
  32 H32            2.9866     1.9621     1.3719 H       
  33 H33            4.0446     5.5104     1.4206 H       
  34 H34           -0.6935     5.2418     2.3774 H       
  35 H35            0.5514     7.3675     2.6942 H       
  36 H36           -1.9348    -4.3099    -0.8595 H       
  37 H37           -0.0884    -3.0298     0.1373 H       
@<TRIPOS>BOND
   1    1    2 1
   2    1    3 1
   3    1    8 2
   4    2    4 1
   5    2   27 1
   6    2   28 1
   7    3    6 1
   8    3    9 1
   9    4    5 1
  10    4   16 am
  11    5    6 1
  12    5   29 1
  13    5   30 1
  14    6   31 1
  15    6   32 1
  16    7    8 1
  17    7    9 2
  18    9   12 1
  19   10   11 ar
  20   10   15 ar
  21   10   33 1
  22   11   12 ar
  23   12   13 ar
  24   13   14 ar
  25   13   34 1
  26   14   15 ar
  27   14   35 1
  28   16   17 2
  29   16   18 1
  30   18   19 ar
  31   18   23 ar
  32   19   20 ar
  33   19   26 1
  34   20   21 ar
  35   20   24 1
  36   21   22 ar
  37   21   25 1
  38   22   23 ar
  39   22   36 1
  40   23   37 1

#	End of record

