#	Name: ASD01814791
#	Creating user name:	WinNT
#	Creation time:	15. 06. 2019 19:33

#	Modifying user name:	WinNT
#	Modification time:	15. 06. 2019 19:33

#	Program:	/corina/corina34_cracker 3.40 0067  02.08.2006

@<TRIPOS>MOLECULE
ASD01814791
  55   58    0    0    0
SMALL
NO_CHARGES


@<TRIPOS>ATOM
   1 C1             0.0758     1.4544    -0.0108 C.2     
   2 C2             0.0742     0.0517    -0.0375 C.2     
   3 C3             1.2588    -0.6217    -0.0259 C.2     
   4 C4             2.4645     0.1020     0.0126 C.2     
   5 N5             2.4369     1.4721     0.0383 N.am    
   6 C6             1.2426     2.1338     0.0260 C.2     
   7 C7             3.6826    -0.5839     0.0246 C.2     
   8 C8             4.8671     0.1225     0.0623 C.2     
   9 C9             4.8259     1.5221     0.0879 C.2     
  10 C10            3.5839     2.1791     0.0751 C.2     
  11 O11            3.5434     3.3993     0.0969 O.2     
  12 C12            6.0786     2.3018     0.1284 C.2     
  13 O13            6.2806     3.2121     1.1164 O.3     
  14 C14            7.0130     2.1125    -0.8057 C.2     
  15 C15            3.7018    -2.0905    -0.0029 C.3     
  16 N16            3.8568    -2.5530    -1.3886 N.3     
  17 C17            4.1168    -3.9975    -1.4353 C.3     
  18 C18            4.4163    -4.4169    -2.8763 C.3     
  19 C19            3.2192    -4.0660    -3.7641 C.3     
  20 C20            2.9393    -2.5642    -3.6599 C.3     
  21 C21            2.6826    -2.1985    -2.1962 C.3     
  22 C22            3.5317    -4.4219    -5.1948 C.ar    
  23 N23            4.7407    -4.8334    -5.5159 N.ar    
  24 C24            5.0607    -5.1559    -6.7545 C.ar    
  25 C25            4.1320    -5.0746    -7.7760 C.ar    
  26 C26            2.8467    -4.6475    -7.4906 C.ar    
  27 C27            2.5359    -4.3179    -6.1668 C.ar    
  28 C28            2.0366    -4.8191    -3.3156 C.1     
  29 N29            1.1239    -5.4002    -2.9695 N.1     
  30 C30            1.1787    -3.8567    -5.8059 C.2     
  31 C31            0.2186    -3.8426    -6.7199 C.2     
  32 H32           -0.8600     1.9934    -0.0243 H       
  33 H33           -0.8593    -0.4906    -0.0665 H       
  34 H34            1.2719    -1.7014    -0.0458 H       
  35 H35            1.2307     3.2135     0.0465 H       
  36 H36            5.8138    -0.3971     0.0723 H       
  37 H37            7.1289     3.6727     1.0595 H       
  38 H38            6.8889     1.3336    -1.5436 H       
  39 H39            7.8931     2.7382    -0.8238 H       
  40 H40            4.5360    -2.4543     0.5970 H       
  41 H41            2.7665    -2.4734     0.4054 H       
  42 H42            4.9730    -4.2330    -0.8031 H       
  43 H43            3.2404    -4.5362    -1.0750 H       
  44 H44            5.3008    -3.8889    -3.2327 H       
  45 H45            4.5939    -5.4917    -2.9131 H       
  46 H46            3.8005    -2.0070    -4.0285 H       
  47 H47            2.0616    -2.3153    -4.2564 H       
  48 H48            1.8129    -2.7456    -1.8322 H       
  49 H49            2.4971    -1.1273    -2.1166 H       
  50 H50            6.0644    -5.4885    -6.9744 H       
  51 H51            4.4068    -5.3412    -8.7858 H       
  52 H52            2.1017    -4.5743    -8.2691 H       
  53 H53            0.9693    -3.5312    -4.7977 H       
  54 H54            0.4280    -4.1681    -7.7281 H       
  55 H55           -0.7730    -3.5056    -6.4562 H       
@<TRIPOS>BOND
   1    1    2 1
   2    1    6 2
   3    1   32 1
   4    2    3 2
   5    2   33 1
   6    3    4 1
   7    3   34 1
   8    4    5 1
   9    4    7 2
  10    5    6 1
  11    5   10 am
  12    6   35 1
  13    7   15 1
  14    7    8 1
  15    8    9 2
  16    8   36 1
  17    9   10 1
  18    9   12 1
  19   10   11 2
  20   12   13 1
  21   12   14 2
  22   13   37 1
  23   14   38 1
  24   14   39 1
  25   15   16 1
  26   15   40 1
  27   15   41 1
  28   16   17 1
  29   16   21 1
  30   17   18 1
  31   17   42 1
  32   17   43 1
  33   18   19 1
  34   18   44 1
  35   18   45 1
  36   19   20 1
  37   19   22 1
  38   19   28 1
  39   20   21 1
  40   20   46 1
  41   20   47 1
  42   21   48 1
  43   21   49 1
  44   22   23 ar
  45   22   27 ar
  46   23   24 ar
  47   24   25 ar
  48   24   50 1
  49   25   26 ar
  50   25   51 1
  51   26   27 ar
  52   26   52 1
  53   27   30 1
  54   28   29 3
  55   30   31 2
  56   30   53 1
  57   31   54 1
  58   31   55 1

#	End of record

