#	Name: ASD01120261
#	Creating user name:	WinNT
#	Creation time:	15. 06. 2019 18:59

#	Modifying user name:	WinNT
#	Modification time:	15. 06. 2019 18:59

#	Program:	/corina/corina34_cracker 3.40 0067  02.08.2006

@<TRIPOS>MOLECULE
ASD01120261
  37   37    0    0    0
SMALL
NO_CHARGES


@<TRIPOS>ATOM
   1 O1            -0.0173     1.4248     0.0099 O.3     
   2 C2             0.0021    -0.0041     0.0020 C.3     
   3 C3            -1.4333    -0.5336     0.0129 C.3     
   4 C4            -2.2006     0.0678     1.1920 C.3     
   5 O5            -2.2100     1.4922     1.0774 O.3     
   6 P6            -2.9309     2.4534     2.1491 P.3     
   7 O7            -2.4087     2.1620     3.5029 O.2     
   8 O8            -2.6311     3.9911     1.7778 O.3     
   9 O9            -4.5196     2.1940     2.1193 O.3     
  10 O10           -2.0887    -0.1947    -1.2207 O.3     
  11 C11           -1.9061    -1.3125    -2.1161 C.3     
  12 C12           -2.0882    -2.5464    -1.1958 C.3     
  13 C13           -1.4239    -2.0707     0.1231 C.3     
  14 O14           -2.1888    -2.4996     1.2514 O.3     
  15 O15           -1.4078    -3.6846    -1.7284 O.3     
  16 C16           -2.9685    -1.3001    -3.2170 C.3     
  17 O17           -2.7707    -0.1611    -4.0570 O.3     
  18 P18           -3.7099     0.1689    -5.3223 P.3     
  19 O19           -3.7434    -0.9996    -6.2300 O.2     
  20 O20           -5.2018     0.4955    -4.8127 O.3     
  21 O21           -3.1208     1.4436    -6.1100 O.3     
  22 H22            0.8606     1.8301     0.0037 H       
  23 H23            0.5123    -0.3556    -0.8948 H       
  24 H24            0.5293    -0.3651     0.8851 H       
  25 H25           -3.2252    -0.3039     1.1863 H       
  26 H26           -1.7154    -0.2184     2.1252 H       
  27 H27           -3.0356     4.6278     2.3828 H       
  28 H28           -4.9301     2.3655     1.2608 H       
  29 H29           -0.9050    -1.2996    -2.5471 H       
  30 H30           -3.1450    -2.7638    -1.0412 H       
  31 H31           -0.4014    -2.4420     0.1908 H       
  32 H32           -2.2648    -3.4602     1.3329 H       
  33 H33           -1.7299    -3.9650    -2.5959 H       
  34 H34           -2.8854    -2.2094    -3.8124 H       
  35 H35           -3.9593    -1.2509    -2.7653 H       
  36 H36           -5.2557     1.2517    -4.2124 H       
  37 H37           -3.6377     1.6998    -6.8860 H       
@<TRIPOS>BOND
   1    1    2 1
   2    1   22 1
   3    2    3 1
   4    2   23 1
   5    2   24 1
   6    3    4 1
   7    3   10 1
   8    3   13 1
   9    4    5 1
  10    4   25 1
  11    4   26 1
  12    5    6 1
  13    6    7 2
  14    6    8 1
  15    6    9 1
  16    8   27 1
  17    9   28 1
  18   10   11 1
  19   11   12 1
  20   11   16 1
  21   11   29 1
  22   12   13 1
  23   12   15 1
  24   12   30 1
  25   13   14 1
  26   13   31 1
  27   14   32 1
  28   15   33 1
  29   16   17 1
  30   16   34 1
  31   16   35 1
  32   17   18 1
  33   18   19 2
  34   18   20 1
  35   18   21 1
  36   20   36 1
  37   21   37 1

#	End of record

