#	Name: ASD01148432
#	Creating user name:	WinNT
#	Creation time:	15. 06. 2019 19:02

#	Modifying user name:	WinNT
#	Modification time:	15. 06. 2019 19:02

#	Program:	/corina/corina34_cracker 3.40 0067  02.08.2006

@<TRIPOS>MOLECULE
ASD01148432
  50   52    0    0    0
SMALL
NO_CHARGES


@<TRIPOS>ATOM
   1 C1             0.3636     1.8430     0.0680 C.ar    
   2 C2             0.4622     0.4641    -0.0073 C.ar    
   3 C3            -0.6833    -0.3068    -0.0942 C.ar    
   4 C4            -1.9251     0.2997    -0.1058 C.ar    
   5 C5            -2.0236     1.6768    -0.0306 C.ar    
   6 C6            -0.8805     2.4481     0.0615 C.ar    
   7 C7            -3.3783     2.3368    -0.0439 C.3     
   8 O8            -4.3701     1.4921     0.5745 O.3     
   9 C9            -3.3994     3.5768     0.8813 C.3     
  10 C10           -3.9256     3.0066     2.1848 C.2     
  11 N11           -4.4452     1.8505     1.9402 N.2     
  12 C12           -3.8554     3.6612     3.5059 C.ar    
  13 C13           -4.3818     3.0217     4.6314 C.ar    
  14 C14           -3.2578     4.9177     3.6321 C.ar    
  15 C15           -3.1924     5.5282     4.8642 C.ar    
  16 C16           -3.7238     4.8914     5.9884 C.ar    
  17 C17           -4.3165     3.6321     5.8632 C.ar    
  18 C18           -3.6536     5.5466     7.3106 C.2     
  19 O19           -4.2122     5.0462     8.2673 O.2     
  20 N20           -2.9703     6.6991     7.4562 N.am    
  21 C21           -4.8901     2.9454     7.0758 C.3     
  22 C22           -3.7888     2.7095    -1.4699 C.3     
  23 F23           -3.8277     1.5560    -2.2606 F       
  24 F24           -5.0549     3.3043    -1.4504 F       
  25 F25           -2.8592     3.6090    -2.0028 F       
  26 Cl26           2.0223    -0.2971     0.0068 Cl      
  27 Cl27           1.8000     2.8117     0.1777 Cl      
  28 C28           -2.9048     7.3119     8.6927 C.2     
  29 N29           -3.4980     6.7804     9.7087 N.2     
  30 O30           -3.4308     7.4084    10.9761 O.3     
  31 C31           -4.1317     6.7114    12.0081 C.3     
  32 C32           -0.5770    -1.8077    -0.1767 C.3     
  33 F33           -1.8589    -2.3624    -0.2562 F       
  34 F34            0.1556    -2.1615    -1.3148 F       
  35 F35            0.0710    -2.2927     0.9644 F       
  36 H36           -2.8192    -0.3024    -0.1740 H       
  37 H37           -0.9581     3.5237     0.1203 H       
  38 H38           -2.3948     3.9789     1.0124 H       
  39 H39           -4.0745     4.3388     0.4919 H       
  40 H40           -4.8402     2.0486     4.5346 H       
  41 H41           -2.8467     5.4099     2.7631 H       
  42 H42           -2.7301     6.4993     4.9619 H       
  43 H43           -2.5246     7.0984     6.6928 H       
  44 H44           -5.8979     3.3172     7.2611 H       
  45 H45           -4.9259     1.8700     6.9014 H       
  46 H46           -4.2615     3.1523     7.9419 H       
  47 H47           -2.3572     8.2354     8.8094 H       
  48 H48           -3.7114     5.7121    12.1216 H       
  49 H49           -4.0321     7.2563    12.9468 H       
  50 H50           -5.1861     6.6342    11.7429 H       
@<TRIPOS>BOND
   1    1    2 ar
   2    1   27 1
   3    1    6 ar
   4    2    3 ar
   5    2   26 1
   6    3    4 ar
   7    3   32 1
   8    4    5 ar
   9    4   36 1
  10    5    6 ar
  11    5    7 1
  12    6   37 1
  13    7    8 1
  14    7    9 1
  15    7   22 1
  16    8   11 1
  17    9   10 1
  18    9   38 1
  19    9   39 1
  20   10   11 2
  21   10   12 1
  22   12   13 ar
  23   12   14 ar
  24   13   17 ar
  25   13   40 1
  26   14   15 ar
  27   14   41 1
  28   15   16 ar
  29   15   42 1
  30   16   17 ar
  31   16   18 1
  32   17   21 1
  33   18   19 2
  34   18   20 am
  35   20   28 1
  36   20   43 1
  37   21   44 1
  38   21   45 1
  39   21   46 1
  40   22   23 1
  41   22   24 1
  42   22   25 1
  43   28   29 2
  44   28   47 1
  45   29   30 1
  46   30   31 1
  47   31   48 1
  48   31   49 1
  49   31   50 1
  50   32   33 1
  51   32   34 1
  52   32   35 1

#	End of record

