#	Name: ASD04882412
#	Creating user name:	WinNT
#	Creation time:	15. 06. 2019 20:54

#	Modifying user name:	WinNT
#	Modification time:	15. 06. 2019 20:54

#	Program:	/corina/corina34_cracker 3.40 0067  02.08.2006

@<TRIPOS>MOLECULE
ASD04882412
  83   88    0    0    0
SMALL
NO_CHARGES


@<TRIPOS>ATOM
   1 C1            -0.3143     1.4400     0.0297 C.ar    
   2 C2            -0.3463     0.0429     0.0119 C.ar    
   3 C3            -1.5647    -0.6262    -0.0103 C.ar    
   4 C4            -2.7442     0.0847    -0.0155 C.ar    
   5 C5            -2.7194     1.4821     0.0017 C.ar    
   6 C6            -1.4958     2.1571     0.0308 C.ar    
   7 N7             0.8439    -0.6800     0.0162 N.3     
   8 C8             0.9248    -1.5537     1.1936 C.3     
   9 C9             0.9978    -1.4476    -1.2262 C.3     
  10 C10            2.3766    -2.1111    -1.2499 C.3     
  11 C11            2.5139    -3.0352    -0.0367 C.3     
  12 C12            2.3014    -2.2204     1.2422 C.3     
  13 C13           -3.9830     2.2435    -0.0048 C.2     
  14 O14           -3.9604     3.4591     0.0101 O.2     
  15 N15           -5.1624     1.5916    -0.0273 N.am    
  16 C16           -6.4172     2.3477    -0.0337 C.3     
  17 C17           -7.5983     1.3754    -0.0600 C.3     
  18 C18           -8.9088     2.1650    -0.0667 C.3     
  19 N19            0.9144     2.1130     0.0520 N.am    
  20 C20            0.9949     3.3517     0.5770 C.2     
  21 O21           -0.0111     3.9136     0.9664 O.2     
  22 C22            2.3019     4.0254     0.6792 C.2     
  23 N23            3.5036     3.5222     0.2868 N.2     
  24 C24            4.4220     4.4068     0.5367 C.2     
  25 O25            3.8547     5.4890     1.0879 O.3     
  26 C26            2.5331     5.2703     1.1784 C.2     
  27 N27          -10.0397     1.2341    -0.0919 N.am    
  28 C28          -10.6393     0.7391     1.0046 C.2     
  29 C29            5.8927     4.2417     0.2526 C.3     
  30 C30            6.5455     5.2464    -0.6989 C.3     
  31 C31            6.8422     5.3090     0.8007 C.3     
  32 N32            3.8533    -3.6286    -0.0223 N.pl3   
  33 C33            5.0370    -2.7659    -0.0515 C.3     
  34 C34            4.0017    -5.0168     0.0192 C.ar    
  35 C35            2.8854    -5.8391    -0.0665 C.ar    
  36 C36            3.0357    -7.2113    -0.0256 C.ar    
  37 C37            4.2957    -7.7669     0.1006 C.ar    
  38 C38            5.4091    -6.9512     0.1862 C.ar    
  39 C39            5.2664    -5.5783     0.1406 C.ar    
  40 C40          -10.6677     0.7270    -1.3177 C.3     
  41 C41          -11.4819    -0.5113    -0.8817 C.3     
  42 C42          -11.7601    -0.1961     0.6074 C.3     
  43 O43          -10.3267     1.0033     2.1463 O.2     
  44 H44           -1.5864    -1.7059    -0.0240 H       
  45 H45           -3.6892    -0.4379    -0.0332 H       
  46 H46           -1.4735     3.2368     0.0445 H       
  47 H47            0.7761    -0.9613     2.0964 H       
  48 H48            0.1521    -2.3200     1.1310 H       
  49 H49            0.2248    -2.2144    -1.2775 H       
  50 H50            0.9022    -0.7780    -2.0810 H       
  51 H51            2.4845    -2.6935    -2.1650 H       
  52 H52            3.1502    -1.3442    -1.2126 H       
  53 H53            1.7651    -3.8252    -0.0940 H       
  54 H54            3.0739    -1.4552     1.3187 H       
  55 H55            2.3556    -2.8809     2.1076 H       
  56 H56           -5.1804     0.6218    -0.0392 H       
  57 H57           -6.4744     2.9645     0.8632 H       
  58 H58           -6.4523     2.9860    -0.9165 H       
  59 H59           -7.5412     0.7586    -0.9569 H       
  60 H60           -7.5633     0.7371     0.8228 H       
  61 H61           -8.9659     2.7819     0.8301 H       
  62 H62           -8.9439     2.8033    -0.9496 H       
  63 H63            1.7072     1.6874    -0.3103 H       
  64 H64            1.7949     5.9501     1.5777 H       
  65 H65            6.2535     3.2136     0.2238 H       
  66 H66            7.3360     4.8793    -1.3535 H       
  67 H67            5.9112     6.0267    -1.1195 H       
  68 H68            6.4031     6.1304     1.3668 H       
  69 H69            7.8279     4.9830     1.1328 H       
  70 H70            5.3332    -2.5209     0.9684 H       
  71 H71            5.8536    -3.2863    -0.5520 H       
  72 H72            4.8048    -1.8486    -0.5927 H       
  73 H73            1.9010    -5.4058    -0.1647 H       
  74 H74            2.1682    -7.8512    -0.0918 H       
  75 H75            4.4105    -8.8403     0.1327 H       
  76 H76            6.3918    -7.3884     0.2846 H       
  77 H77            6.1364    -4.9419     0.2071 H       
  78 H78          -11.3285     1.4822    -1.7433 H       
  79 H79           -9.9048     0.4410    -2.0418 H       
  80 H80          -12.4129    -0.5837    -1.4440 H       
  81 H81          -10.8927    -1.4223    -0.9867 H       
  82 H82          -11.7253    -1.1081     1.2034 H       
  83 H83          -12.7257     0.2971     0.7191 H       
@<TRIPOS>BOND
   1    1    2 ar
   2    1   19 1
   3    1    6 ar
   4    2    3 ar
   5    2    7 1
   6    3    4 ar
   7    3   44 1
   8    4    5 ar
   9    4   45 1
  10    5    6 ar
  11    5   13 1
  12    6   46 1
  13    7    8 1
  14    7    9 1
  15    8   12 1
  16    8   47 1
  17    8   48 1
  18    9   10 1
  19    9   49 1
  20    9   50 1
  21   10   11 1
  22   10   51 1
  23   10   52 1
  24   11   12 1
  25   11   32 1
  26   11   53 1
  27   12   54 1
  28   12   55 1
  29   13   14 2
  30   13   15 am
  31   15   16 1
  32   15   56 1
  33   16   17 1
  34   16   57 1
  35   16   58 1
  36   17   18 1
  37   17   59 1
  38   17   60 1
  39   18   27 1
  40   18   61 1
  41   18   62 1
  42   19   20 am
  43   19   63 1
  44   20   21 2
  45   20   22 1
  46   22   23 1
  47   22   26 2
  48   23   24 2
  49   24   25 1
  50   24   29 1
  51   25   26 1
  52   26   64 1
  53   27   28 am
  54   27   40 1
  55   28   43 2
  56   28   42 1
  57   29   30 1
  58   29   31 1
  59   29   65 1
  60   30   31 1
  61   30   66 1
  62   30   67 1
  63   31   68 1
  64   31   69 1
  65   32   33 1
  66   32   34 1
  67   33   70 1
  68   33   71 1
  69   33   72 1
  70   34   35 ar
  71   34   39 ar
  72   35   36 ar
  73   35   73 1
  74   36   37 ar
  75   36   74 1
  76   37   38 ar
  77   37   75 1
  78   38   39 ar
  79   38   76 1
  80   39   77 1
  81   40   41 1
  82   40   78 1
  83   40   79 1
  84   41   42 1
  85   41   80 1
  86   41   81 1
  87   42   82 1
  88   42   83 1

#	End of record

