#	Name: ASD02030150
#	Creating user name:	WinNT
#	Creation time:	15. 06. 2019 20:14

#	Modifying user name:	WinNT
#	Modification time:	15. 06. 2019 20:14

#	Program:	/corina/corina34_cracker 3.40 0067  02.08.2006

@<TRIPOS>MOLECULE
ASD02030150
  51   54    0    0    0
SMALL
NO_CHARGES


@<TRIPOS>ATOM
   1 N1            -0.1293     1.2619     0.3982 N.am    
   2 C2            -0.3342    -0.1934     0.4117 C.3     
   3 C3            -1.3590    -0.5340     1.5007 C.3     
   4 N4            -2.5262     0.3441     1.3382 N.am    
   5 C5            -2.3214     1.7994     1.3247 C.3     
   6 C6            -1.2972     2.1401     0.2414 C.3     
   7 C7             1.1068     1.7819     0.5329 C.2     
   8 C8             2.2537     0.8958     0.8244 C.2     
   9 N9             3.4803     1.2833     1.1001 N.2     
  10 N10            2.2257    -0.4491     0.8603 N.2     
  11 C11            3.4350    -0.8558     1.1516 C.2     
  12 N12            4.2088     0.2392     1.2988 N.pl3   
  13 O13            1.2786     2.9794     0.4147 O.2     
  14 C14           -3.7623    -0.1758     1.2035 C.2     
  15 C15           -3.9426    -1.6353     1.1242 C.2     
  16 O16           -4.7290     0.5603     1.1474 O.2     
  17 C17           -0.8657     3.6011     0.3839 C.3     
  18 C18           -1.9168     1.9164    -1.1396 C.3     
  19 C19            5.5743     0.2409     1.6140 C.ar    
  20 C20            6.2583     1.4430     1.7374 C.ar    
  21 C21            7.6040     1.4414     2.0481 C.ar    
  22 C22            8.2704     0.2444     2.2358 C.ar    
  23 C23            7.5920    -0.9544     2.1136 C.ar    
  24 C24            6.2448    -0.9592     1.8092 C.ar    
  25 C25           -5.1313    -2.2196     0.8526 C.2     
  26 N26           -2.9460    -2.5052     1.3082 N.2     
  27 C27           -3.2624    -3.7479     1.2058 C.2     
  28 S28           -4.9239    -3.9163     0.8489 S.3     
  29 C29           -2.3000    -4.8953     1.3737 C.3     
  30 F30           -2.2722    -5.2880     2.7162 F       
  31 F31           -2.7144    -5.9714     0.5816 F       
  32 F32           -1.0198    -4.4918     0.9793 F       
  33 H33           -0.7094    -0.5189    -0.5585 H       
  34 H34            0.6097    -0.6937     0.6282 H       
  35 H35           -1.6673    -1.5746     1.4002 H       
  36 H36           -0.9152    -0.3745     2.4834 H       
  37 H37           -3.2653     2.2997     1.1082 H       
  38 H38           -1.9461     2.1250     2.2949 H       
  39 H39            3.7547    -1.8818     1.2580 H       
  40 H40           -0.3233     3.7300     1.3205 H       
  41 H41           -0.2191     3.8721    -0.4507 H       
  42 H42           -1.7474     4.2420     0.3835 H       
  43 H43           -2.7912     2.5571    -1.2536 H       
  44 H44           -1.1850     2.1599    -1.9099 H       
  45 H45           -2.2155     0.8729    -1.2391 H       
  46 H46            5.7386     2.3782     1.5902 H       
  47 H47            8.1366     2.3761     2.1442 H       
  48 H48            9.3229     0.2457     2.4780 H       
  49 H49            8.1151    -1.8877     2.2608 H       
  50 H50            5.7154    -1.8958     1.7142 H       
  51 H51           -6.0598    -1.6995     0.6686 H       
@<TRIPOS>BOND
   1    1    2 1
   2    1    7 am
   3    1    6 1
   4    2    3 1
   5    2   33 1
   6    2   34 1
   7    3    4 1
   8    3   35 1
   9    3   36 1
  10    4    5 1
  11    4   14 am
  12    5    6 1
  13    5   37 1
  14    5   38 1
  15    6   17 1
  16    6   18 1
  17    7    8 1
  18    7   13 2
  19    8    9 2
  20    8   10 1
  21    9   12 1
  22   10   11 2
  23   11   12 1
  24   11   39 1
  25   12   19 1
  26   14   15 1
  27   14   16 2
  28   15   26 1
  29   15   25 2
  30   17   40 1
  31   17   41 1
  32   17   42 1
  33   18   43 1
  34   18   44 1
  35   18   45 1
  36   19   20 ar
  37   19   24 ar
  38   20   21 ar
  39   20   46 1
  40   21   22 ar
  41   21   47 1
  42   22   23 ar
  43   22   48 1
  44   23   24 ar
  45   23   49 1
  46   24   50 1
  47   25   28 1
  48   25   51 1
  49   26   27 2
  50   27   28 1
  51   27   29 1
  52   29   30 1
  53   29   31 1
  54   29   32 1

#	End of record

