#	Name: ASD01028781
#	Creating user name:	WinNT
#	Creation time:	15. 06. 2019 18:58

#	Modifying user name:	WinNT
#	Modification time:	15. 06. 2019 18:58

#	Program:	/corina/corina34_cracker 3.40 0067  02.08.2006

@<TRIPOS>MOLECULE
ASD01028781
  28   29    0    0    0
SMALL
NO_CHARGES


@<TRIPOS>ATOM
   1 N1            -0.0157     1.3052     0.0092 N.ar    
   2 C2             0.0021    -0.0041     0.0020 C.ar    
   3 C3             1.2070    -0.7198    -0.0133 C.ar    
   4 C4             2.4081    -0.0372    -0.0211 C.ar    
   5 C5             2.3713     1.3695    -0.0132 C.ar    
   6 N6             3.4974     2.0884    -0.0204 N.ar    
   7 C7             3.4692     3.4000    -0.0135 C.ar    
   8 C8             2.2688     4.1041     0.0020 C.ar    
   9 C9             1.0797     3.4288     0.0101 C.ar    
  10 C10            1.1126     2.0195     0.0023 C.ar    
  11 N11            1.1936    -2.1148    -0.0203 N.pl3   
  12 C12           -0.0820    -2.8351    -0.0115 C.3     
  13 C13            0.1830    -4.3419    -0.0217 C.3     
  14 O14            0.8382    -4.7185     1.1911 O.3     
  15 C15            1.1329    -6.1137     1.2834 C.3     
  16 Cl16          -0.4306     4.2845     0.0295 Cl      
  17 H17           -0.9329    -0.5447     0.0084 H       
  18 H18            3.3485    -0.5681    -0.0326 H       
  19 H19            4.4005     3.9469    -0.0198 H       
  20 H20            2.2764     5.1841     0.0080 H       
  21 H21            2.0289    -2.6078    -0.0309 H       
  22 H22           -0.6424    -2.5708     0.8853 H       
  23 H23           -0.6597    -2.5618    -0.8945 H       
  24 H24           -0.7631    -4.8767    -0.1048 H       
  25 H25            0.8183    -4.5933    -0.8711 H       
  26 H26            0.2065    -6.6853     1.2274 H       
  27 H27            1.7879    -6.4019     0.4612 H       
  28 H28            1.6292    -6.3182     2.2321 H       
@<TRIPOS>BOND
   1    1    2 ar
   2    1   10 ar
   3    2    3 ar
   4    2   17 1
   5    3    4 ar
   6    3   11 1
   7    4    5 ar
   8    4   18 1
   9    5    6 ar
  10    5   10 ar
  11    6    7 ar
  12    7    8 ar
  13    7   19 1
  14    8    9 ar
  15    8   20 1
  16    9   10 ar
  17    9   16 1
  18   11   12 1
  19   11   21 1
  20   12   13 1
  21   12   22 1
  22   12   23 1
  23   13   14 1
  24   13   24 1
  25   13   25 1
  26   14   15 1
  27   15   26 1
  28   15   27 1
  29   15   28 1

#	End of record

