#	Name: ASD03091705
#	Creating user name:	WinNT
#	Creation time:	15. 06. 2019 20:31

#	Modifying user name:	WinNT
#	Modification time:	15. 06. 2019 20:31

#	Program:	/corina/corina34_cracker 3.40 0067  02.08.2006

@<TRIPOS>MOLECULE
ASD03091705
  59   62    0    0    0
SMALL
NO_CHARGES


@<TRIPOS>ATOM
   1 C1             0.3352     1.4522    -0.3610 C.2     
   2 C2             0.0778     0.1883     0.0357 C.2     
   3 N3            -1.1957    -0.0646     0.2460 N.2     
   4 C4            -2.0320     0.9104     0.0509 C.2     
   5 S5            -1.1969     2.3183    -0.4417 S.3     
   6 N6            -3.4015     0.8233     0.2230 N.3     
   7 C7            -4.0533     2.1054    -0.0816 C.3     
   8 C8            -3.7342     0.3803     1.5848 C.3     
   9 C9            -5.2533     0.2404     1.7132 C.3     
  10 O10           -5.8714     1.4872     1.3832 O.3     
  11 C11           -5.5692     1.9481     0.0636 C.3     
  12 C12            1.6661     2.0120    -0.6671 C.ar    
  13 C13            1.8734     2.7917    -1.8129 C.ar    
  14 C14            2.7565     1.7837     0.1830 C.ar    
  15 C15            3.9811     2.3261    -0.1414 C.ar    
  16 N16            4.1337     3.0513    -1.2340 N.ar    
  17 C17            3.1325     3.2947    -2.0594 C.ar    
  18 C18            1.1580    -0.8459     0.2220 C.3     
  19 C19            5.1623     2.0885     0.7638 C.3     
  20 N20            1.5314    -0.9126     1.6371 N.am    
  21 C21            2.4853    -1.7741     2.0424 C.2     
  22 C22            2.8618    -1.8414     3.4693 C.ar    
  23 O23            3.0360    -2.4957     1.2338 O.2     
  24 C24            3.3711     4.1297    -3.2910 C.3     
  25 C25           -6.2480     3.2986    -0.1738 C.3     
  26 C26            2.1510    -1.1023     4.4171 C.ar    
  27 C27            2.5063    -1.1691     5.7474 C.ar    
  28 C28            3.5673    -1.9679     6.1448 C.ar    
  29 C29            4.2769    -2.7037     5.2076 C.ar    
  30 C30            3.9263    -2.6490     3.8759 C.ar    
  31 F31            3.9116    -2.0295     7.4498 F       
  32 C32            4.6980    -3.4495     2.8587 C.3     
  33 H33           -3.6984     2.8679     0.6118 H       
  34 H34           -3.8142     2.4016    -1.1029 H       
  35 H35           -3.2622    -0.5826     1.7798 H       
  36 H36           -3.3742     1.1153     2.3047 H       
  37 H37           -5.6066    -0.5328     1.0310 H       
  38 H38           -5.5084    -0.0326     2.7372 H       
  39 H39           -5.9317     1.2246    -0.6666 H       
  40 H40            1.0591     2.9949    -2.4925 H       
  41 H41            2.6388     1.1920     1.0788 H       
  42 H42            0.7894    -1.8189    -0.1028 H       
  43 H43            2.0302    -0.5712    -0.3713 H       
  44 H44            5.6825     1.1828     0.4522 H       
  45 H45            5.8430     2.9376     0.7032 H       
  46 H46            4.8156     1.9733     1.7908 H       
  47 H47            1.0920    -0.3368     2.2823 H       
  48 H48            3.6598     3.4820    -4.1188 H       
  49 H49            2.4573     4.6647    -3.5498 H       
  50 H50            4.1686     4.8464    -3.0952 H       
  51 H51           -5.8833     4.0218     0.5558 H       
  52 H52           -6.0173     3.6494    -1.1797 H       
  53 H53           -7.3269     3.1869    -0.0665 H       
  54 H54            1.3247    -0.4791     4.1084 H       
  55 H55            1.9572    -0.5978     6.4813 H       
  56 H56            5.1031    -3.3239     5.5225 H       
  57 H57            4.1736    -4.3837     2.6578 H       
  58 H58            4.7855    -2.8762     1.9357 H       
  59 H59            5.6930    -3.6674     3.2467 H       
@<TRIPOS>BOND
   1    1    2 2
   2    1   12 1
   3    1    5 1
   4    2    3 1
   5    2   18 1
   6    3    4 2
   7    4    5 1
   8    4    6 1
   9    6    7 1
  10    6    8 1
  11    7   11 1
  12    7   33 1
  13    7   34 1
  14    8    9 1
  15    8   35 1
  16    8   36 1
  17    9   10 1
  18    9   37 1
  19    9   38 1
  20   10   11 1
  21   11   25 1
  22   11   39 1
  23   12   13 ar
  24   12   14 ar
  25   13   17 ar
  26   13   40 1
  27   14   15 ar
  28   14   41 1
  29   15   16 ar
  30   15   19 1
  31   16   17 ar
  32   17   24 1
  33   18   20 1
  34   18   42 1
  35   18   43 1
  36   19   44 1
  37   19   45 1
  38   19   46 1
  39   20   21 am
  40   20   47 1
  41   21   22 1
  42   21   23 2
  43   22   26 ar
  44   22   30 ar
  45   24   48 1
  46   24   49 1
  47   24   50 1
  48   25   51 1
  49   25   52 1
  50   25   53 1
  51   26   27 ar
  52   26   54 1
  53   27   28 ar
  54   27   55 1
  55   28   29 ar
  56   28   31 1
  57   29   30 ar
  58   29   56 1
  59   30   32 1
  60   32   57 1
  61   32   58 1
  62   32   59 1

#	End of record

