#	Name: ASD01948146
#	Creating user name:	WinNT
#	Creation time:	15. 06. 2019 20:13

#	Modifying user name:	WinNT
#	Modification time:	15. 06. 2019 20:13

#	Program:	/corina/corina34_cracker 3.40 0067  02.08.2006

@<TRIPOS>MOLECULE
ASD01948146
  43   45    0    0    0
SMALL
NO_CHARGES


@<TRIPOS>ATOM
   1 C1             1.8006     1.4195    -1.0461 C.ar    
   2 C2             1.5990     0.0464    -1.1433 C.ar    
   3 C3             1.7728    -0.5929    -2.3630 C.ar    
   4 C4             2.1452     0.1352    -3.4768 C.ar    
   5 C5             2.3451     1.5003    -3.3783 C.ar    
   6 C6             2.1675     2.1430    -2.1655 C.ar    
   7 N7             1.2224    -0.6887    -0.0137 N.pl3   
   8 C8             3.6321    -2.2831    -0.4396 C.2     
   9 C9             2.3522    -2.8732    -0.2911 C.2     
  10 C10            1.1520    -2.0667    -0.0783 C.2     
  11 N11            4.6888    -3.1040    -0.6378 N.am    
  12 F12            1.6326     2.0458     0.1391 F       
  13 C13            2.2386    -4.2694    -0.3501 C.2     
  14 N14            1.0121    -4.8554    -0.2085 N.am    
  15 C15           -0.0975    -4.1236    -0.0125 C.2     
  16 C16           -0.0590    -2.7275     0.0571 C.2     
  17 C17            4.5120    -4.4451    -0.6900 C.2     
  18 N18            3.3419    -5.0048    -0.5450 N.2     
  19 O19            3.7754    -1.0740    -0.3952 O.2     
  20 C20            0.9047    -6.3151    -0.2718 C.3     
  21 O21           -1.1699    -4.6936     0.1078 O.2     
  22 Br22           2.8547     2.4917    -4.9058 Br      
  23 C23            6.0310    -2.5389    -0.7971 C.3     
  24 C24            6.7020    -2.4241     0.5731 C.3     
  25 O25            6.9038    -3.7306     1.1156 O.3     
  26 O26            8.6258    -1.5089     1.7141 O.3     
  27 C27            8.0521    -1.7203     0.4225 C.3     
  28 Cl28          -1.5206    -1.8263     0.3125 Cl      
  29 H29            1.6174    -1.6588    -2.4413 H       
  30 H30            2.2807    -0.3625    -4.4257 H       
  31 H31            2.3243     3.2090    -2.0916 H       
  32 H32            1.0107    -0.2305     0.8146 H       
  33 H33            5.3734    -5.0766    -0.8498 H       
  34 H34            1.0215    -6.7317     0.7286 H       
  35 H35           -0.0725    -6.5906    -0.6683 H       
  36 H36            1.6852    -6.7089    -0.9228 H       
  37 H37            6.6251    -3.1891    -1.4392 H       
  38 H38            5.9575    -1.5500    -1.2496 H       
  39 H39            6.0642    -1.8472     1.2428 H       
  40 H40            7.4635    -4.3006     0.5707 H       
  41 H41            9.4851    -1.0659     1.6951 H       
  42 H42            8.7205    -2.3404    -0.1748 H       
  43 H43            7.9080    -0.7600    -0.0727 H       
@<TRIPOS>BOND
   1    1    2 ar
   2    1   12 1
   3    1    6 ar
   4    2    3 ar
   5    2    7 1
   6    3    4 ar
   7    3   29 1
   8    4    5 ar
   9    4   30 1
  10    5    6 ar
  11    5   22 1
  12    6   31 1
  13    7   10 1
  14    7   32 1
  15    8    9 1
  16    8   19 2
  17    8   11 am
  18    9   10 1
  19    9   13 2
  20   10   16 2
  21   11   17 1
  22   11   23 1
  23   13   14 1
  24   13   18 1
  25   14   15 am
  26   14   20 1
  27   15   16 1
  28   15   21 2
  29   16   28 1
  30   17   18 2
  31   17   33 1
  32   20   34 1
  33   20   35 1
  34   20   36 1
  35   23   24 1
  36   23   37 1
  37   23   38 1
  38   24   25 1
  39   24   27 1
  40   24   39 1
  41   25   40 1
  42   26   27 1
  43   26   41 1
  44   27   42 1
  45   27   43 1

#	End of record

