#	Name: ASD01410518
#	Creating user name:	WinNT
#	Creation time:	15. 06. 2019 19:18

#	Modifying user name:	WinNT
#	Modification time:	15. 06. 2019 19:18

#	Program:	/corina/corina34_cracker 3.40 0067  02.08.2006

@<TRIPOS>MOLECULE
ASD01410518
  71   74    0    0    0
SMALL
NO_CHARGES


@<TRIPOS>ATOM
   1 C1            -0.2833    -0.5969     1.9309 C.ar    
   2 C2             0.2749    -1.2757     3.0051 C.ar    
   3 C3             1.6059    -1.6406     2.9560 C.ar    
   4 N4             2.3479    -1.3515     1.9041 N.ar    
   5 C5             1.8521    -0.7060     0.8612 C.ar    
   6 C6             0.5212    -0.3089     0.8420 C.ar    
   7 O7             2.6513    -0.4289    -0.1995 O.3     
   8 C8             3.9674    -0.7586    -0.1104 C.ar    
   9 C9             4.3591    -2.0859    -0.2389 C.ar    
  10 C10            5.6921    -2.4317    -0.1497 C.ar    
  11 C11            6.6527    -1.4538     0.0694 C.ar    
  12 C12            6.2637    -0.1116     0.1995 C.ar    
  13 C13            4.9123     0.2286     0.1020 C.ar    
  14 N14            7.9982    -1.8035     0.1602 N.am    
  15 C15            8.7532    -1.8728    -0.9541 C.2     
  16 C16            8.5924    -2.0960     1.4670 C.3     
  17 O17            9.9424    -2.1108    -0.8688 O.2     
  18 C18            8.1362    -1.6598    -2.2780 C.ar    
  19 C19            7.1674    -0.6679    -2.4494 C.ar    
  20 C20            6.5955    -0.4735    -3.6880 C.ar    
  21 C21            6.9779    -1.2590    -4.7637 C.ar    
  22 C22            7.9363    -2.2435    -4.6037 C.ar    
  23 C23            8.5230    -2.4461    -3.3682 C.ar    
  24 C24           -0.5625    -1.6105     4.2125 C.3     
  25 C25            7.5209    -1.9768     2.5526 C.3     
  26 C26            9.1586    -3.5174     1.4632 C.3     
  27 Br27           6.1853    -0.9840    -6.4584 Br      
  28 C28            6.2292    -0.3741     3.7807 C.3     
  29 O29            7.2238    -0.5975     2.7792 O.3     
  30 O30           10.3429    -3.5562     0.6644 O.3     
  31 C31           -1.2134    -2.9813     4.0175 C.3     
  32 C32           10.9545    -4.8458     0.5941 C.3     
  33 N33           -2.0274    -3.3068     5.1913 N.pl3   
  34 F34            9.4590    -3.4077    -3.2120 F       
  35 N35           -3.2709    -3.0071     5.3239 N.2     
  36 C36           -3.6881    -3.4449     6.4902 C.2     
  37 C37           -2.5827    -4.0548     7.0877 C.2     
  38 N38           -1.5972    -3.9361     6.2270 N.2     
  39 C39            7.2760     0.9338     0.4328 C.2     
  40 O40            8.4580     0.6556     0.3892 O.2     
  41 O41            6.8907     2.1984     0.6945 O.3     
  42 C42           -0.0393     0.4258    -0.3485 C.3     
  43 F43           -1.3903     0.7127    -0.1256 F       
  44 F44            0.6664     1.6194    -0.5344 F       
  45 F45            0.0857    -0.3726    -1.4904 F       
  46 H46           -1.3228    -0.3041     1.9424 H       
  47 H47            2.0450    -2.1689     3.7893 H       
  48 H48            3.6160    -2.8510    -0.4091 H       
  49 H49            5.9886    -3.4653    -0.2503 H       
  50 H50            4.6052     1.2593     0.2011 H       
  51 H51            9.3944    -1.3859     1.6686 H       
  52 H52            6.8670    -0.0547    -1.6126 H       
  53 H53            5.8466     0.2933    -3.8207 H       
  54 H54            8.2295    -2.8524    -5.4461 H       
  55 H55            0.0709    -1.6319     5.0993 H       
  56 H56           -1.3378    -0.8547     4.3379 H       
  57 H57            6.6177    -2.4948     2.2302 H       
  58 H58            7.8874    -2.4259     3.4757 H       
  59 H59            9.3987    -3.8156     2.4837 H       
  60 H60            8.4185    -4.2022     1.0492 H       
  61 H61            6.0609     0.6969     3.8931 H       
  62 H62            5.2992    -0.8589     3.4837 H       
  63 H63            6.5689    -0.7900     4.7293 H       
  64 H64           -1.8468    -2.9600     3.1307 H       
  65 H65           -0.4381    -3.7372     3.8921 H       
  66 H66           11.8465    -4.7913    -0.0301 H       
  67 H67           11.2319    -5.1715     1.5966 H       
  68 H68           10.2517    -5.5581     0.1620 H       
  69 H69           -4.6820    -3.3520     6.9025 H       
  70 H70           -2.5466    -4.5304     8.0567 H       
  71 H71            7.5907     2.8493     0.8407 H       
@<TRIPOS>BOND
   1    1    2 ar
   2    1    6 ar
   3    1   46 1
   4    2    3 ar
   5    2   24 1
   6    3    4 ar
   7    3   47 1
   8    4    5 ar
   9    5    6 ar
  10    5    7 1
  11    6   42 1
  12    7    8 1
  13    8    9 ar
  14    8   13 ar
  15    9   10 ar
  16    9   48 1
  17   10   11 ar
  18   10   49 1
  19   11   12 ar
  20   11   14 1
  21   12   13 ar
  22   12   39 1
  23   13   50 1
  24   14   15 am
  25   14   16 1
  26   15   17 2
  27   15   18 1
  28   16   26 1
  29   16   25 1
  30   16   51 1
  31   18   19 ar
  32   18   23 ar
  33   19   20 ar
  34   19   52 1
  35   20   21 ar
  36   20   53 1
  37   21   22 ar
  38   21   27 1
  39   22   23 ar
  40   22   54 1
  41   23   34 1
  42   24   31 1
  43   24   55 1
  44   24   56 1
  45   25   29 1
  46   25   57 1
  47   25   58 1
  48   26   30 1
  49   26   59 1
  50   26   60 1
  51   28   29 1
  52   28   61 1
  53   28   62 1
  54   28   63 1
  55   30   32 1
  56   31   33 1
  57   31   64 1
  58   31   65 1
  59   32   66 1
  60   32   67 1
  61   32   68 1
  62   33   35 1
  63   33   38 1
  64   35   36 2
  65   36   37 1
  66   36   69 1
  67   37   38 2
  68   37   70 1
  69   39   40 2
  70   39   41 1
  71   41   71 1
  72   42   43 1
  73   42   44 1
  74   42   45 1

#	End of record

