#	Name: ASD01882866
#	Creating user name:	WinNT
#	Creation time:	15. 06. 2019 19:45

#	Modifying user name:	WinNT
#	Modification time:	15. 06. 2019 19:45

#	Program:	/corina/corina34_cracker 3.40 0067  02.08.2006

@<TRIPOS>MOLECULE
ASD01882866
  39   42    0    0    0
SMALL
NO_CHARGES


@<TRIPOS>ATOM
   1 Br1           -2.8827     8.1122     2.2138 Br      
   2 C2            -1.6648     6.6769     2.0345 C.ar    
   3 C3            -2.1172     5.3703     2.1159 C.ar    
   4 C4            -1.2309     4.3228     1.9841 C.ar    
   5 C5             0.1273     4.5593     1.7680 C.ar    
   6 N6             0.9480     3.4462     1.6379 N.am    
   7 C7             1.9403     3.3270     0.7553 C.2     
   8 O8             2.5688     2.2914     0.6955 O.2     
   9 C9             2.2892     4.4656    -0.1696 C.3     
  10 C10            2.7011     5.6449     0.6718 C.2     
  11 N11            1.8872     6.2089     1.4881 N.2     
  12 C12            0.5875     5.8730     1.6885 C.ar    
  13 C13           -0.3292     6.9303     1.8173 C.ar    
  14 C14            4.0740     6.1649     0.5543 C.ar    
  15 C15            4.4369     7.3427     1.2149 C.ar    
  16 C16            5.7236     7.8293     1.1043 C.ar    
  17 C17            6.6598     7.1574     0.3423 C.ar    
  18 C18            6.3112     5.9812    -0.3215 C.ar    
  19 C19            5.0190     5.4803    -0.2125 C.ar    
  20 C20            7.3199     5.2629    -1.1394 C.ar    
  21 C21            8.6243     5.7515    -1.2479 C.ar    
  22 C22            9.5282     5.0444    -2.0227 C.ar    
  23 C23            9.1148     3.8881    -2.6583 C.ar    
  24 N24            7.8760     3.4512    -2.5371 N.ar    
  25 C25            6.9830     4.0871    -1.8069 C.ar    
  26 H26           -3.1656     5.1720     2.2831 H       
  27 H27           -1.5919     3.3070     2.0493 H       
  28 H28            0.7871     2.6987     2.2349 H       
  29 H29            3.1132     4.1719    -0.8198 H       
  30 H30            1.4202     4.7293    -0.7724 H       
  31 H31            0.0179     7.9508     1.7499 H       
  32 H32            3.7094     7.8724     1.8120 H       
  33 H33            5.9998     8.7397     1.6155 H       
  34 H34            7.6647     7.5443     0.2600 H       
  35 H35            4.7463     4.5677    -0.7215 H       
  36 H36            8.9201     6.6579    -0.7407 H       
  37 H37           10.5449     5.3924    -2.1296 H       
  38 H38            9.8170     3.3342    -3.2637 H       
  39 H39            5.9794     3.6960    -1.7283 H       
@<TRIPOS>BOND
   1    1    2 1
   2    2   13 ar
   3    2    3 ar
   4    3    4 ar
   5    3   26 1
   6    4    5 ar
   7    4   27 1
   8    5   12 ar
   9    5    6 1
  10    6    7 am
  11    6   28 1
  12    7    8 2
  13    7    9 1
  14    9   10 1
  15    9   29 1
  16    9   30 1
  17   10   11 2
  18   10   14 1
  19   11   12 1
  20   12   13 ar
  21   13   31 1
  22   14   19 ar
  23   14   15 ar
  24   15   16 ar
  25   15   32 1
  26   16   17 ar
  27   16   33 1
  28   17   18 ar
  29   17   34 1
  30   18   19 ar
  31   18   20 1
  32   19   35 1
  33   20   25 ar
  34   20   21 ar
  35   21   22 ar
  36   21   36 1
  37   22   23 ar
  38   22   37 1
  39   23   24 ar
  40   23   38 1
  41   24   25 ar
  42   25   39 1

#	End of record

