#	Name: ASD01940299
#	Creating user name:	WinNT
#	Creation time:	15. 06. 2019 20:12

#	Modifying user name:	WinNT
#	Modification time:	15. 06. 2019 20:12

#	Program:	/corina/corina34_cracker 3.40 0067  02.08.2006

@<TRIPOS>MOLECULE
ASD01940299
  51   53    0    0    0
SMALL
NO_CHARGES


@<TRIPOS>ATOM
   1 C1            -1.3493     3.4300     0.6034 C.3     
   2 C2            -0.1675     4.0211     1.3746 C.3     
   3 C3            -1.4494     4.8370     1.1959 C.3     
   4 S4            -1.1876     3.2893    -1.1979 S.o2    
   5 O5            -0.0775     2.4694    -1.5364 O.2     
   6 O6            -2.4593     3.0850    -1.7982 O.2     
   7 N7            -0.7415     4.8054    -1.6925 N.am    
   8 C8            -2.1515     2.3185     1.2830 C.3     
   9 C9            -3.3042     1.8915     0.3721 C.3     
  10 C10           -4.3195     1.0809     1.1803 C.3     
  11 O11           -5.4509     0.7814     0.3604 O.3     
  12 O12           -2.7957     1.0893    -0.6955 O.3     
  13 C13            0.4922     5.3413    -1.2881 C.ar    
  14 C14            0.5381     6.5666    -0.6279 C.ar    
  15 C15            1.7607     7.0925    -0.2294 C.ar    
  16 C16            2.9314     6.3986    -0.4887 C.ar    
  17 C17            2.8871     5.1805    -1.1454 C.ar    
  18 C18            1.6699     4.6469    -1.5409 C.ar    
  19 O19            1.6286     3.4469    -2.1807 O.3     
  20 C20            2.8629     2.7391    -2.3126 C.3     
  21 N21           -0.6469     7.2683    -0.3664 N.pl3   
  22 C22           -0.6321     8.3684     0.4967 C.ar    
  23 C23           -0.3290     8.1940     1.8436 C.ar    
  24 C24           -0.3155     9.2842     2.6934 C.ar    
  25 C25           -0.6031    10.5468     2.2053 C.ar    
  26 C26           -0.9046    10.7222     0.8671 C.ar    
  27 C27           -0.9142     9.6378     0.0108 C.ar    
  28 I28           -0.5822    12.1962     3.4968 I       
  29 F29           -0.0487     6.9613     2.3199 F       
  30 F30            4.1192     6.9119    -0.1002 F       
  31 F31            1.8079     8.2812     0.4108 F       
  32 H32            0.0385     3.6182     2.3663 H       
  33 H33            0.7071     4.3255     0.7997 H       
  34 H34           -1.4181     5.6782     0.5034 H       
  35 H35           -2.0868     4.9709     2.0699 H       
  36 H36           -1.3321     5.3234    -2.2614 H       
  37 H37           -1.5013     1.4641     1.4711 H       
  38 H38           -2.5519     2.6853     2.2281 H       
  39 H39           -3.7902     2.7767    -0.0382 H       
  40 H40           -3.8581     0.1522     1.5162 H       
  41 H41           -4.6410     1.6605     2.0456 H       
  42 H42           -6.1367     0.2680     0.8089 H       
  43 H43           -2.3492     0.2829    -0.4033 H       
  44 H44            3.8020     4.6427    -1.3460 H       
  45 H45            3.5986     3.3792    -2.7996 H       
  46 H46            3.2260     2.4546    -1.3249 H       
  47 H47            2.7058     1.8436    -2.9137 H       
  48 H48           -1.4771     6.9907    -0.7842 H       
  49 H49           -0.0808     9.1504     3.7390 H       
  50 H50           -1.1288    11.7091     0.4899 H       
  51 H51           -1.1452     9.7771    -1.0350 H       
@<TRIPOS>BOND
   1    1    2 1
   2    1    3 1
   3    1    4 1
   4    1    8 1
   5    2    3 1
   6    2   32 1
   7    2   33 1
   8    3   34 1
   9    3   35 1
  10    4    5 2
  11    4    6 2
  12    4    7 am
  13    7   13 1
  14    7   36 1
  15    8    9 1
  16    8   37 1
  17    8   38 1
  18    9   10 1
  19    9   12 1
  20    9   39 1
  21   10   11 1
  22   10   40 1
  23   10   41 1
  24   11   42 1
  25   12   43 1
  26   13   14 ar
  27   13   18 ar
  28   14   15 ar
  29   14   21 1
  30   15   16 ar
  31   15   31 1
  32   16   17 ar
  33   16   30 1
  34   17   18 ar
  35   17   44 1
  36   18   19 1
  37   19   20 1
  38   20   45 1
  39   20   46 1
  40   20   47 1
  41   21   22 1
  42   21   48 1
  43   22   23 ar
  44   22   27 ar
  45   23   24 ar
  46   23   29 1
  47   24   25 ar
  48   24   49 1
  49   25   26 ar
  50   25   28 1
  51   26   27 ar
  52   26   50 1
  53   27   51 1

#	End of record

