#	Name: ASD03320183
#	Creating user name:	WinNT
#	Creation time:	15. 06. 2019 20:36

#	Modifying user name:	WinNT
#	Modification time:	15. 06. 2019 20:36

#	Program:	/corina/corina34_cracker 3.40 0067  02.08.2006

@<TRIPOS>MOLECULE
ASD03320183
  46   48    0    0    0
SMALL
NO_CHARGES


@<TRIPOS>ATOM
   1 C1            -0.0078     1.3449    -0.1947 C.ar    
   2 C2             0.0216    -0.0349     0.0279 C.ar    
   3 C3            -1.1507    -0.7585     0.0445 C.ar    
   4 C4            -2.3673    -0.1222    -0.1595 C.ar    
   5 C5            -2.4073     1.2598    -0.3833 C.ar    
   6 C6            -1.2278     1.9923    -0.3948 C.ar    
   7 C7             1.2499     2.1173    -0.2120 C.2     
   8 O8             1.2237     3.3175    -0.4056 O.2     
   9 N9             2.4273     1.4923    -0.0131 N.am    
  10 C10            3.6268     2.2061    -0.1264 C.ar    
  11 C11           -3.7073     1.9404    -0.6019 C.ar    
  12 C12            3.6887     3.5305     0.2864 C.ar    
  13 C13            4.8720     4.2335     0.1748 C.ar    
  14 C14            5.9986     3.6170    -0.3496 C.ar    
  15 C15            5.9374     2.2942    -0.7627 C.ar    
  16 C16            4.7564     1.5881    -0.6464 C.ar    
  17 O17            7.1634     4.3100    -0.4592 O.3     
  18 C18            8.2837     3.6130    -1.0080 C.3     
  19 F19            7.9774     3.1851    -2.3043 F       
  20 F20            9.3905     4.4677    -1.0483 F       
  21 F21            8.5800     2.5037    -0.2086 F       
  22 O22           -3.5186    -0.8396    -0.1425 O.3     
  23 C23           -4.0473     3.0877     0.1194 C.ar    
  24 N24           -5.2158     3.6630    -0.1070 N.ar    
  25 C25           -6.0534     3.1692    -0.9972 C.ar    
  26 N26           -5.7719     2.0892    -1.6988 N.ar    
  27 C27           -4.6231     1.4551    -1.5390 C.ar    
  28 C28           -3.4040    -2.2448     0.0908 C.3     
  29 C29           -4.7959    -2.8797     0.0744 C.3     
  30 O30           -5.3594    -2.7583    -1.2332 O.3     
  31 H31            0.9656    -0.5349     0.1868 H       
  32 H32           -1.1230    -1.8243     0.2165 H       
  33 H33           -1.2536     3.0582    -0.5669 H       
  34 H34            2.4439     0.5481     0.2085 H       
  35 H35            2.8116     4.0107     0.6944 H       
  36 H36            4.9202     5.2637     0.4955 H       
  37 H37            6.8149     1.8150    -1.1712 H       
  38 H38            4.7090     0.5581    -0.9677 H       
  39 H39           -3.3664     3.4978     0.8505 H       
  40 H40           -6.9998     3.6646    -1.1564 H       
  41 H41           -4.3994     0.5709    -2.1174 H       
  42 H42           -2.7905    -2.6940    -0.6902 H       
  43 H43           -2.9384    -2.4151     1.0616 H       
  44 H44           -4.7175    -3.9340     0.3398 H       
  45 H45           -5.4361    -2.3703     0.7946 H       
  46 H46           -6.2437    -3.1403    -1.3174 H       
@<TRIPOS>BOND
   1    1    2 ar
   2    1    7 1
   3    1    6 ar
   4    2    3 ar
   5    2   31 1
   6    3    4 ar
   7    3   32 1
   8    4    5 ar
   9    4   22 1
  10    5    6 ar
  11    5   11 1
  12    6   33 1
  13    7    8 2
  14    7    9 am
  15    9   10 1
  16    9   34 1
  17   10   12 ar
  18   10   16 ar
  19   11   23 ar
  20   11   27 ar
  21   12   13 ar
  22   12   35 1
  23   13   14 ar
  24   13   36 1
  25   14   15 ar
  26   14   17 1
  27   15   16 ar
  28   15   37 1
  29   16   38 1
  30   17   18 1
  31   18   19 1
  32   18   20 1
  33   18   21 1
  34   22   28 1
  35   23   24 ar
  36   23   39 1
  37   24   25 ar
  38   25   26 ar
  39   25   40 1
  40   26   27 ar
  41   27   41 1
  42   28   29 1
  43   28   42 1
  44   28   43 1
  45   29   30 1
  46   29   44 1
  47   29   45 1
  48   30   46 1

#	End of record

