#	Name: ASD09740553
#	Creating user name:	WinNT
#	Creation time:	15. 06. 2019 21:23

#	Modifying user name:	WinNT
#	Modification time:	15. 06. 2019 21:23

#	Program:	/corina/corina34_cracker 3.40 0067  02.08.2006

@<TRIPOS>MOLECULE
ASD09740553
  64   68    0    0    0
SMALL
NO_CHARGES


@<TRIPOS>ATOM
   1 N1            -1.2348     1.9704     1.0074 N.2     
   2 C2            -1.3578     0.6920     1.2642 C.2     
   3 C3            -0.0499     2.4952     1.1488 C.2     
   4 S4             1.0788     1.2478     1.6712 S.3     
   5 C5            -0.2261     0.0631     1.6500 C.2     
   6 C6             0.2924     3.9123     0.9082 C.ar    
   7 C7            -0.6926     4.8063     0.4952 C.ar    
   8 C8             1.6038     4.3571     1.1006 C.ar    
   9 C9             1.9286     5.6779     0.8780 C.ar    
  10 C10            0.9565     6.5762     0.4619 C.ar    
  11 C11           -0.3639     6.1420     0.2702 C.ar    
  12 O12            1.2816     7.8753     0.2451 O.3     
  13 C13            2.6639     8.2236     0.3456 C.3     
  14 C14            2.9338     9.4830    -0.4802 C.3     
  15 C15            3.0180     8.4885     1.8103 C.3     
  16 C16           -1.3692     7.0668    -0.1598 C.1     
  17 N17           -2.1667     7.8005    -0.5008 N.1     
  18 C18           -0.1035    -1.3689     1.9944 C.ar    
  19 C19            0.9050    -2.1443     1.4148 C.ar    
  20 C20            1.0139    -3.4806     1.7405 C.ar    
  21 C21            0.1247    -4.0481     2.6398 C.ar    
  22 C22           -0.8747    -3.2856     3.2154 C.ar    
  23 C23           -0.9906    -1.9473     2.9027 C.ar    
  24 C24            1.9828    -1.7685     0.4210 C.3     
  25 C25            3.0250    -2.9037     0.5076 C.3     
  26 C26            2.1733    -4.0980     0.9877 C.3     
  27 N27            1.6832    -4.8665    -0.1592 N.am    
  28 C28            1.3707    -6.1694    -0.0134 C.2     
  29 N29            0.8222    -6.8498    -1.0395 N.am    
  30 O30            1.5836    -6.7311     1.0437 O.2     
  31 C31            0.3610    -8.2355    -0.8657 C.3     
  32 C32           -1.0776    -8.3383    -1.3835 C.3     
  33 N33           -1.1360    -7.8324    -2.7614 N.3     
  34 C34           -0.7817    -6.4081    -2.8215 C.3     
  35 C35            0.6635    -6.2241    -2.3611 C.3     
  36 H36           -2.3016     0.1749     1.1739 H       
  37 H37           -1.7071     4.4657     0.3496 H       
  38 H38            2.3651     3.6632     1.4251 H       
  39 H39            2.9435     6.0150     1.0285 H       
  40 H40            3.2737     7.4033    -0.0330 H       
  41 H41            2.3240    10.3033    -0.1016 H       
  42 H42            3.9882     9.7487    -0.4035 H       
  43 H43            2.6816     9.2943    -1.5237 H       
  44 H44            2.8257     7.5912     2.3986 H       
  45 H45            4.0723     8.7541     1.8869 H       
  46 H46            2.4081     9.3088     2.1889 H       
  47 H47            0.2130    -5.0944     2.8925 H       
  48 H48           -1.5627    -3.7375     3.9146 H       
  49 H49           -1.7710    -1.3513     3.3524 H       
  50 H50            1.5669    -1.7128    -0.5850 H       
  51 H51            2.4365    -0.8166     0.6969 H       
  52 H52            3.4597    -3.1063    -0.4712 H       
  53 H53            3.8004    -2.6634     1.2350 H       
  54 H54            2.7572    -4.7369     1.6503 H       
  55 H55            1.5835    -4.4376    -1.0235 H       
  56 H56            1.0034    -8.9091    -1.4330 H       
  57 H57            0.3897    -8.5012     0.1911 H       
  58 H58           -1.3973    -9.3802    -1.3647 H       
  59 H59           -1.7356    -7.7440    -0.7496 H       
  60 H60           -0.5464    -8.3778    -3.3721 H       
  61 H61           -0.8868    -6.0501    -3.8457 H       
  62 H62           -1.4439    -5.8406    -2.1676 H       
  63 H63            0.8941    -5.1609    -2.2946 H       
  64 H64            1.3377    -6.7043    -3.0703 H       
@<TRIPOS>BOND
   1    1    2 1
   2    1    3 2
   3    2    5 2
   4    2   36 1
   5    3    4 1
   6    3    6 1
   7    4    5 1
   8    5   18 1
   9    6    7 ar
  10    6    8 ar
  11    7   11 ar
  12    7   37 1
  13    8    9 ar
  14    8   38 1
  15    9   10 ar
  16    9   39 1
  17   10   11 ar
  18   10   12 1
  19   11   16 1
  20   12   13 1
  21   13   14 1
  22   13   15 1
  23   13   40 1
  24   14   41 1
  25   14   42 1
  26   14   43 1
  27   15   44 1
  28   15   45 1
  29   15   46 1
  30   16   17 3
  31   18   19 ar
  32   18   23 ar
  33   19   20 ar
  34   19   24 1
  35   20   21 ar
  36   20   26 1
  37   21   22 ar
  38   21   47 1
  39   22   23 ar
  40   22   48 1
  41   23   49 1
  42   24   25 1
  43   24   50 1
  44   24   51 1
  45   25   26 1
  46   25   52 1
  47   25   53 1
  48   26   27 1
  49   26   54 1
  50   27   28 am
  51   27   55 1
  52   28   29 am
  53   28   30 2
  54   29   31 1
  55   29   35 1
  56   31   32 1
  57   31   56 1
  58   31   57 1
  59   32   33 1
  60   32   58 1
  61   32   59 1
  62   33   34 1
  63   33   60 1
  64   34   35 1
  65   34   61 1
  66   34   62 1
  67   35   63 1
  68   35   64 1

#	End of record

