#	Name: ASD01870329
#	Creating user name:	WinNT
#	Creation time:	15. 06. 2019 19:39

#	Modifying user name:	WinNT
#	Modification time:	15. 06. 2019 19:39

#	Program:	/corina/corina34_cracker 3.40 0067  02.08.2006

@<TRIPOS>MOLECULE
ASD01870329
  25   27    0    0    0
SMALL
NO_CHARGES


@<TRIPOS>ATOM
   1 C1            -0.0162     1.3436     0.0094 C.2     
   2 N2             0.0021    -0.0041     0.0020 N.am    
   3 O3             1.0286     1.9659     0.0028 O.2     
   4 C4             1.2110    -0.6803    -0.0132 C.2     
   5 O5             1.3624    -2.0138    -0.0218 O.3     
   6 C6             2.6866    -2.2774    -0.0358 C.2     
   7 C7             3.3273    -1.0984    -0.0356 C.2     
   8 N8             2.3972    -0.1251    -0.0272 N.2     
   9 C9            -1.3020     2.0628     0.0194 C.2     
  10 N10           -2.5045     1.5285     0.0227 N.2     
  11 N11           -3.4268     2.4215     0.0325 N.pl3   
  12 C12           -2.8953     3.6848     0.0369 C.ar    
  13 C13           -1.4963     3.5190     0.0342 C.ar    
  14 C14           -0.6606     4.6314     0.0427 C.ar    
  15 C15           -1.2043     5.8858     0.0566 C.ar    
  16 C16           -2.5824     6.0574     0.0623 C.ar    
  17 C17           -3.4273     4.9700     0.0469 C.ar    
  18 H18           -0.8313    -0.5005     0.0073 H       
  19 H19            3.1449    -3.2553    -0.0451 H       
  20 H20            4.3978    -0.9557    -0.0450 H       
  21 H21           -4.3772     2.2271     0.0361 H       
  22 H22            0.4119     4.5046     0.0387 H       
  23 H23           -0.5569     6.7502     0.0635 H       
  24 H24           -2.9962     7.0549     0.0732 H       
  25 H25           -4.4976     5.1143     0.0529 H       
@<TRIPOS>BOND
   1    1    2 am
   2    1    3 2
   3    1    9 1
   4    2    4 1
   5    2   18 1
   6    4    5 1
   7    4    8 2
   8    5    6 1
   9    6    7 2
  10    6   19 1
  11    7    8 1
  12    7   20 1
  13    9   10 2
  14    9   13 1
  15   10   11 1
  16   11   12 1
  17   11   21 1
  18   12   17 ar
  19   12   13 ar
  20   13   14 ar
  21   14   15 ar
  22   14   22 1
  23   15   16 ar
  24   15   23 1
  25   16   17 ar
  26   16   24 1
  27   17   25 1

#	End of record

