#	Name: ASD05490332
#	Creating user name:	WinNT
#	Creation time:	15. 06. 2019 21:01

#	Modifying user name:	WinNT
#	Modification time:	15. 06. 2019 21:01

#	Program:	/corina/corina34_cracker 3.40 0067  02.08.2006

@<TRIPOS>MOLECULE
ASD05490332
  61   65    0    0    0
SMALL
NO_CHARGES


@<TRIPOS>ATOM
   1 O1             5.6382     0.5655    -0.0473 O.2     
   2 N2            -0.0159     1.3192     0.0093 N.ar    
   3 C3             0.0021    -0.0041     0.0020 C.ar    
   4 N4             1.1319    -0.6919    -0.0120 N.ar    
   5 C5             2.3044    -0.0664    -0.0199 C.ar    
   6 C6             2.3283     1.3287    -0.0130 C.ar    
   7 C7             1.1173     2.0186     0.0022 C.ar    
   8 N8             1.0930     3.4056     0.0090 N.pl3   
   9 O9            -1.1748    -0.6760     0.0096 O.3     
  10 N10            3.6209    -0.4901    -0.0343 N.am    
  11 C11            4.4216     0.5926    -0.0363 C.2     
  12 N12            3.6694     1.7108    -0.0237 N.am    
  13 C13            4.0695    -1.8847    -0.0456 C.3     
  14 C14            4.2101    -2.3557    -1.4701 C.ar    
  15 C15            5.4160    -2.2037    -2.1303 C.ar    
  16 C16            3.1343    -2.9436    -2.1108 C.ar    
  17 C17            3.2575    -3.3768    -3.4155 C.ar    
  18 C18            4.4682    -3.2210    -4.0872 C.ar    
  19 C19            5.5503    -2.6333    -3.4351 C.ar    
  20 C20           -2.3694     0.1080     0.0253 C.3     
  21 C21           -3.5873    -0.8182     0.0319 C.3     
  22 O22           -3.6101    -1.5663     1.2492 O.3     
  23 C23           -4.7142    -2.4671     1.3572 C.3     
  24 C24            4.6066    -3.6848    -5.4900 C.ar    
  25 C25            3.5338    -4.2790    -6.1508 C.ar    
  26 N26            3.6604    -4.6909    -7.3931 N.ar    
  27 C27            4.7927    -4.5661    -8.0699 C.ar    
  28 C28            5.8973    -3.9835    -7.4839 C.ar    
  29 C29            5.8128    -3.5291    -6.1756 C.ar    
  30 C30            6.0362    -4.4870   -10.2228 C.3     
  31 N31            7.2389    -4.6863    -9.3986 N.3     
  32 C32            8.4591    -4.4557   -10.1834 C.3     
  33 C33            4.8366    -5.0830    -9.4865 C.3     
  34 C34            7.1976    -3.8116    -8.2221 C.3     
  35 H35            1.9244     3.9053     0.0031 H       
  36 H36            0.2446     3.8757     0.0197 H       
  37 H37            4.0026     2.6218    -0.0222 H       
  38 H38            5.0328    -1.9605     0.4589 H       
  39 H39            3.3384    -2.5058     0.4720 H       
  40 H40            6.2539    -1.7477    -1.6241 H       
  41 H41            2.1964    -3.0641    -1.5891 H       
  42 H42            2.4170    -3.8360    -3.9146 H       
  43 H43            6.4910    -2.5101    -3.9511 H       
  44 H44           -2.3828     0.7321     0.9188 H       
  45 H45           -2.3998     0.7417    -0.8611 H       
  46 H46           -4.4970    -0.2227    -0.0458 H       
  47 H47           -3.5277    -1.5027    -0.8142 H       
  48 H48           -4.6780    -3.1859     0.5386 H       
  49 H49           -4.6594    -2.9966     2.3084 H       
  50 H50           -5.6473    -1.9059     1.3070 H       
  51 H51            2.5910    -4.4026    -5.6388 H       
  52 H52            6.6651    -3.0724    -5.6946 H       
  53 H53            5.8747    -3.4209   -10.3828 H       
  54 H54            6.1629    -4.9886   -11.1822 H       
  55 H55            8.4600    -3.4334   -10.5617 H       
  56 H56            9.3328    -4.6096    -9.5503 H       
  57 H57            8.4897    -5.1529   -11.0207 H       
  58 H58            4.9238    -6.1694    -9.4727 H       
  59 H59            3.9188    -4.8017   -10.0029 H       
  60 H60            7.2966    -2.7740    -8.5409 H       
  61 H61            8.0248    -4.0619    -7.5579 H       
@<TRIPOS>BOND
   1    1   11 2
   2    2    3 ar
   3    2    7 ar
   4    3    4 ar
   5    3    9 1
   6    4    5 ar
   7    5    6 ar
   8    5   10 1
   9    6    7 ar
  10    6   12 1
  11    7    8 1
  12    8   35 1
  13    8   36 1
  14    9   20 1
  15   10   11 am
  16   10   13 1
  17   11   12 am
  18   12   37 1
  19   13   14 1
  20   13   38 1
  21   13   39 1
  22   14   15 ar
  23   14   16 ar
  24   15   19 ar
  25   15   40 1
  26   16   17 ar
  27   16   41 1
  28   17   18 ar
  29   17   42 1
  30   18   19 ar
  31   18   24 1
  32   19   43 1
  33   20   21 1
  34   20   44 1
  35   20   45 1
  36   21   22 1
  37   21   46 1
  38   21   47 1
  39   22   23 1
  40   23   48 1
  41   23   49 1
  42   23   50 1
  43   24   25 ar
  44   24   29 ar
  45   25   26 ar
  46   25   51 1
  47   26   27 ar
  48   27   28 ar
  49   27   33 1
  50   28   29 ar
  51   28   34 1
  52   29   52 1
  53   30   31 1
  54   30   33 1
  55   30   53 1
  56   30   54 1
  57   31   34 1
  58   31   32 1
  59   32   55 1
  60   32   56 1
  61   32   57 1
  62   33   58 1
  63   33   59 1
  64   34   60 1
  65   34   61 1

#	End of record

