#	Name: ASD08170102
#	Creating user name:	WinNT
#	Creation time:	15. 06. 2019 21:17

#	Modifying user name:	WinNT
#	Modification time:	15. 06. 2019 21:17

#	Program:	/corina/corina34_cracker 3.40 0067  02.08.2006

@<TRIPOS>MOLECULE
ASD08170102
  72   75    0    0    0
SMALL
NO_CHARGES


@<TRIPOS>ATOM
   1 C1            -0.0187     1.5258     0.0104 C.3     
   2 C2             0.0021    -0.0041     0.0020 C.3     
   3 C3             1.3788     3.5031     0.0077 C.3     
   4 C4             2.8278     3.9942    -0.0035 C.3     
   5 C5             2.8475     5.5010     0.0044 C.2     
   6 C6            -1.4117    -0.5257     0.0127 C.2     
   7 S7             2.8476     6.5490    -1.4145 S.3     
   8 C8             2.8747     7.9153    -0.3814 C.2     
   9 N9             2.8811     7.5052     0.8510 N.2     
  10 N10            2.8619     6.2594     1.0543 N.2     
  11 S11           -2.3742    -0.8935     1.4445 S.3     
  12 N12           -2.1404    -0.7792    -1.0277 N.2     
  13 N13           -3.3061    -1.2119    -0.8091 N.2     
  14 C14           -3.6713    -1.3622     0.4283 C.2     
  15 N15           -4.9107    -1.8251     0.8572 N.am    
  16 C16           -5.1688    -1.9374     2.1753 C.2     
  17 O17           -4.3203    -1.6348     2.9873 O.2     
  18 N18            2.8882     9.2434    -0.7940 N.am    
  19 C19            2.8801     9.5408    -2.1085 C.2     
  20 C20            2.8947    10.9799    -2.5555 C.3     
  21 O21            2.8611     8.6503    -2.9316 O.2     
  22 C22           -6.5117    -2.4389     2.6400 C.3     
  23 C23           -6.5426    -2.4699     4.1464 C.ar    
  24 C24           -6.9711    -1.3610     4.8518 C.ar    
  25 C25            2.8818    11.0383    -4.0613 C.ar    
  26 C26            1.6788    11.0806    -4.7411 C.ar    
  27 C27           -6.9994    -1.3893     6.2336 C.ar    
  28 C28           -6.5995    -2.5267     6.9099 C.ar    
  29 C29           -6.1718    -3.6359     6.2044 C.ar    
  30 C30           -6.1477    -3.6091     4.8225 C.ar    
  31 C31            4.0729    11.0552    -4.7626 C.ar    
  32 C32            4.0610    11.1088    -6.1439 C.ar    
  33 C33            2.8580    11.1450    -6.8239 C.ar    
  34 C34            1.6670    11.1342    -6.1223 C.ar    
  35 N35            1.3595     2.0342     0.0000 N.3     
  36 C36           -5.9356    -2.1905    -0.1237 C.3     
  37 C37           -5.7931    -3.6710    -0.4827 C.3     
  38 C38            2.9112    10.3190     0.2003 C.3     
  39 C39            4.3615    10.6748     0.5333 C.3     
  40 H40           -0.5459     1.8868    -0.8726 H       
  41 H41           -0.5289     1.8773     0.9072 H       
  42 H42            0.5123    -0.3556    -0.8948 H       
  43 H43            0.5293    -0.3651     0.8851 H       
  44 H44            0.8783     3.8683     0.9045 H       
  45 H45            0.8613     3.8779    -0.8754 H       
  46 H46            3.3452     3.6194     0.8796 H       
  47 H47            3.3283     3.6290    -0.9003 H       
  48 H48            2.0148    11.4908    -2.1645 H       
  49 H49            3.7946    11.4676    -2.1807 H       
  50 H50           -7.2943    -1.7742     2.2741 H       
  51 H51           -6.6782    -3.4440     2.2525 H       
  52 H52           -7.2835    -0.4724     4.3234 H       
  53 H53            0.7483    11.0715    -4.1930 H       
  54 H54           -7.3335    -0.5227     6.7848 H       
  55 H55           -6.6209    -2.5486     7.9895 H       
  56 H56           -5.8591    -4.5244     6.7328 H       
  57 H57           -5.8136    -4.4756     4.2714 H       
  58 H58            5.0128    11.0270    -4.2314 H       
  59 H59            4.9917    11.1228    -6.6918 H       
  60 H60            2.8488    11.1872    -7.9030 H       
  61 H61            0.7271    11.1624    -6.6536 H       
  62 H62            1.8883     1.6616     0.7744 H       
  63 H63           -6.9240    -2.0130     0.3003 H       
  64 H64           -5.8113    -1.5853    -1.0216 H       
  65 H65           -4.8047    -3.8485    -0.9066 H       
  66 H66           -5.9174    -4.2762     0.4153 H       
  67 H67           -6.5557    -3.9429    -1.2125 H       
  68 H68            2.4051    11.1966    -0.2020 H       
  69 H69            2.4013     9.9884     1.1051 H       
  70 H70            4.8715    11.0054    -0.3715 H       
  71 H71            4.3787    11.4751     1.2731 H       
  72 H72            4.8677     9.7973     0.9356 H       
@<TRIPOS>BOND
   1    1    2 1
   2    1   35 1
   3    1   40 1
   4    1   41 1
   5    2    6 1
   6    2   42 1
   7    2   43 1
   8    3    4 1
   9    3   35 1
  10    3   44 1
  11    3   45 1
  12    4    5 1
  13    4   46 1
  14    4   47 1
  15    5    7 1
  16    5   10 2
  17    6   11 1
  18    6   12 2
  19    7    8 1
  20    8    9 2
  21    8   18 1
  22    9   10 1
  23   11   14 1
  24   12   13 1
  25   13   14 2
  26   14   15 1
  27   15   16 am
  28   15   36 1
  29   16   17 2
  30   16   22 1
  31   18   19 am
  32   18   38 1
  33   19   20 1
  34   19   21 2
  35   20   25 1
  36   20   48 1
  37   20   49 1
  38   22   23 1
  39   22   50 1
  40   22   51 1
  41   23   24 ar
  42   23   30 ar
  43   24   27 ar
  44   24   52 1
  45   25   26 ar
  46   25   31 ar
  47   26   34 ar
  48   26   53 1
  49   27   28 ar
  50   27   54 1
  51   28   29 ar
  52   28   55 1
  53   29   30 ar
  54   29   56 1
  55   30   57 1
  56   31   32 ar
  57   31   58 1
  58   32   33 ar
  59   32   59 1
  60   33   34 ar
  61   33   60 1
  62   34   61 1
  63   35   62 1
  64   36   37 1
  65   36   63 1
  66   36   64 1
  67   37   65 1
  68   37   66 1
  69   37   67 1
  70   38   39 1
  71   38   68 1
  72   38   69 1
  73   39   70 1
  74   39   71 1
  75   39   72 1

#	End of record

