#	Name: ASD01900549
#	Creating user name:	WinNT
#	Creation time:	15. 06. 2019 19:52

#	Modifying user name:	WinNT
#	Modification time:	15. 06. 2019 19:52

#	Program:	/corina/corina34_cracker 3.40 0067  02.08.2006

@<TRIPOS>MOLECULE
ASD01900549
  41   44    0    0    0
SMALL
NO_CHARGES


@<TRIPOS>ATOM
   1 C1             0.9851     3.1570     0.7506 C.ar    
   2 C2             2.0487     3.6070     1.5300 C.ar    
   3 C3             3.2478     2.9130     1.4975 C.ar    
   4 C4             3.3417     1.7927     0.6864 C.ar    
   5 C5             2.2432     1.4021    -0.0622 C.ar    
   6 N6             1.1167     2.0791    -0.0126 N.ar    
   7 C7            -0.3052     3.8840     0.7788 C.2     
   8 O8            -0.4328     4.8686     1.4797 O.2     
   9 N9            -1.3378     3.4535     0.0271 N.am    
  10 C10           -2.5849     4.0804     0.1267 C.ar    
  11 C11           -2.6583     5.4515     0.3376 C.ar    
  12 C12           -3.8894     6.0697     0.4359 C.ar    
  13 C13           -5.0541     5.3199     0.3238 C.ar    
  14 C14           -4.9801     3.9501     0.1136 C.ar    
  15 C15           -3.7494     3.3327     0.0091 C.ar    
  16 C16           -6.9758     6.1179     1.5739 C.2     
  17 N17           -8.1980     6.6167     1.3693 N.am    
  18 C18           -8.1977     7.1271    -0.0281 C.3     
  19 C19           -6.9869     6.4576    -0.6265 C.2     
  20 N20           -6.3054     5.9479     0.4236 N.am    
  21 C21           -9.5148     6.5555    -0.5899 C.3     
  22 C22          -10.4846     6.7277     0.6082 C.3     
  23 C23           -9.5697     6.8180     1.8498 C.3     
  24 O24           -6.5232     5.8544     2.6707 O.2     
  25 O25           -6.6882     6.3903    -1.7997 O.2     
  26 Cl26          -3.9820     7.7830     0.7000 Cl      
  27 H27            1.9404     4.4844     2.1504 H       
  28 H28            4.0901     3.2379     2.0903 H       
  29 H29            4.2623     1.2300     0.6383 H       
  30 H30            2.3129     0.5298    -0.6951 H       
  31 H31           -1.2164     2.7092    -0.5829 H       
  32 H32           -1.7530     6.0338     0.4250 H       
  33 H33           -5.8853     3.3675     0.0268 H       
  34 H34           -3.6923     2.2675    -0.1593 H       
  35 H35           -8.1452     8.2145    -0.0835 H       
  36 H36           -9.8534     7.1338    -1.4496 H       
  37 H37           -9.4015     5.5028    -0.8493 H       
  38 H38          -11.0650     7.6437     0.4975 H       
  39 H39          -11.1467     5.8655     0.6870 H       
  40 H40           -9.8333     6.0397     2.5660 H       
  41 H41           -9.6635     7.8003     2.3129 H       
@<TRIPOS>BOND
   1    1    2 ar
   2    1    6 ar
   3    1    7 1
   4    2    3 ar
   5    2   27 1
   6    3    4 ar
   7    3   28 1
   8    4    5 ar
   9    4   29 1
  10    5    6 ar
  11    5   30 1
  12    7    8 2
  13    7    9 am
  14    9   10 1
  15    9   31 1
  16   10   11 ar
  17   10   15 ar
  18   11   12 ar
  19   11   32 1
  20   12   13 ar
  21   12   26 1
  22   13   14 ar
  23   13   20 1
  24   14   15 ar
  25   14   33 1
  26   15   34 1
  27   16   17 am
  28   16   20 am
  29   16   24 2
  30   17   18 1
  31   17   23 1
  32   18   19 1
  33   18   21 1
  34   18   35 1
  35   19   20 am
  36   19   25 2
  37   21   22 1
  38   21   36 1
  39   21   37 1
  40   22   23 1
  41   22   38 1
  42   22   39 1
  43   23   40 1
  44   23   41 1

#	End of record

