#	Name: ASD05430323
#	Creating user name:	WinNT
#	Creation time:	15. 06. 2019 21:00

#	Modifying user name:	WinNT
#	Modification time:	15. 06. 2019 21:00

#	Program:	/corina/corina34_cracker 3.40 0067  02.08.2006

@<TRIPOS>MOLECULE
ASD05430323
  54   58    0    0    0
SMALL
NO_CHARGES


@<TRIPOS>ATOM
   1 N1            -0.0683     2.0190     0.0691 N.pl3   
   2 C2             1.4104     1.8766    -0.0013 C.3     
   3 O3             1.8173     3.0390    -0.7264 O.3     
   4 N4             0.7255     3.9427    -0.6547 N.2     
   5 C5            -0.3290     3.3496    -0.1733 C.2     
   6 C6             2.0543     1.7910     1.3585 C.ar    
   7 C7             3.4060     2.0424     1.4995 C.ar    
   8 C8             1.2916     1.4665     2.4645 C.ar    
   9 C9             1.8821     1.3880     3.7145 C.ar    
  10 C10            3.2368     1.6341     3.8561 C.ar    
  11 C11            3.9987     1.9640     2.7485 C.ar    
  12 C12           -1.6175     4.0077     0.0759 C.2     
  13 C13           -1.7682     5.3171    -0.1966 C.2     
  14 C14           -3.0601     5.9770     0.0532 C.ar    
  15 C15           -4.1318     5.2451     0.5736 C.ar    
  16 C16           -3.2168     7.3388    -0.2240 C.ar    
  17 C17           -4.4316     7.9531     0.0123 C.ar    
  18 C18           -5.4980     7.2154     0.5262 C.ar    
  19 C19           -5.3407     5.8646     0.8069 C.ar    
  20 N20           -6.7293     7.8404     0.7658 N.pl3   
  21 C21           -7.5566     8.3801    -0.1677 C.2     
  22 N22           -8.6058     8.8676     0.4394 N.2     
  23 C23           -8.4908     8.6616     1.7604 C.2     
  24 C24           -7.3305     8.0178     1.9867 C.2     
  25 O25           -4.5873     9.2769    -0.2556 O.3     
  26 C26           -9.4910     9.0746     2.8093 C.3     
  27 C27           -0.5783     0.6672     0.3191 C.3     
  28 C28            0.4448    -0.3117    -0.2966 C.3     
  29 C29            1.5862     0.5896    -0.8330 C.3     
  30 F30            1.1361     1.0717     4.7956 F       
  31 F31            5.3211     2.2045     2.8853 F       
  32 Cl32          -7.2675     8.4165    -1.8790 Cl      
  33 C33           -3.4532     9.9705    -0.7797 C.3     
  34 H34            4.0002     2.2998     0.6352 H       
  35 H35            0.2346     1.2746     2.3537 H       
  36 H36            3.6982     1.5734     4.8307 H       
  37 H37           -2.4444     3.4412     0.4779 H       
  38 H38           -0.9412     5.8836    -0.5986 H       
  39 H39           -4.0125     4.1942     0.7925 H       
  40 H40           -2.3902     7.9089    -0.6215 H       
  41 H41           -6.1691     5.2969     1.2043 H       
  42 H42           -6.9438     7.7064     2.9458 H       
  43 H43          -10.2097     8.2697     2.9630 H       
  44 H44           -8.9717     9.2817     3.7450 H       
  45 H45          -10.0150     9.9713     2.4785 H       
  46 H46           -0.6632     0.4927     1.3917 H       
  47 H47           -1.5501     0.5406    -0.1581 H       
  48 H48            0.8251    -0.9917     0.4657 H       
  49 H49           -0.0108    -0.8725    -1.1128 H       
  50 H50            1.4522     0.7934    -1.8953 H       
  51 H51            2.5592     0.1361    -0.6441 H       
  52 H52           -2.6298     9.9107    -0.0680 H       
  53 H53           -3.1522     9.5143    -1.7228 H       
  54 H54           -3.7126    11.0158    -0.9482 H       
@<TRIPOS>BOND
   1    1   27 1
   2    1    2 1
   3    1    5 1
   4    2    3 1
   5    2    6 1
   6    2   29 1
   7    3    4 1
   8    4    5 2
   9    5   12 1
  10    6    7 ar
  11    6    8 ar
  12    7   11 ar
  13    7   34 1
  14    8    9 ar
  15    8   35 1
  16    9   10 ar
  17    9   30 1
  18   10   11 ar
  19   10   36 1
  20   11   31 1
  21   12   13 2
  22   12   37 1
  23   13   14 1
  24   13   38 1
  25   14   15 ar
  26   14   16 ar
  27   15   19 ar
  28   15   39 1
  29   16   17 ar
  30   16   40 1
  31   17   18 ar
  32   17   25 1
  33   18   19 ar
  34   18   20 1
  35   19   41 1
  36   20   21 1
  37   20   24 1
  38   21   22 2
  39   21   32 1
  40   22   23 1
  41   23   24 2
  42   23   26 1
  43   24   42 1
  44   25   33 1
  45   26   43 1
  46   26   44 1
  47   26   45 1
  48   27   28 1
  49   27   46 1
  50   27   47 1
  51   28   29 1
  52   28   48 1
  53   28   49 1
  54   29   50 1
  55   29   51 1
  56   33   52 1
  57   33   53 1
  58   33   54 1

#	End of record

