#	Name: ASD01840393
#	Creating user name:	WinNT
#	Creation time:	15. 06. 2019 19:37

#	Modifying user name:	WinNT
#	Modification time:	15. 06. 2019 19:37

#	Program:	/corina/corina34_cracker 3.40 0067  02.08.2006

@<TRIPOS>MOLECULE
ASD01840393
  50   53    0    0    0
SMALL
NO_CHARGES


@<TRIPOS>ATOM
   1 C1             0.5208     1.1507    -1.3357 C.ar    
   2 C2             0.8025    -0.0579    -1.9338 C.ar    
   3 N3             1.9935    -0.6121    -1.7855 N.ar    
   4 N4             2.9266    -0.0698    -1.0960 N.ar    
   5 C5             1.5372     1.7662    -0.5701 C.ar    
   6 C6             1.5295     3.0185     0.1632 C.2     
   7 C7             2.7663     1.1000    -0.4729 C.ar    
   8 S8             3.8802     2.0329     0.5167 S.3     
   9 C9             2.6981     3.2975     0.7920 C.2     
  10 C10           -0.8292     1.8005    -1.4980 C.3     
  11 C11           -0.2507    -0.7507    -2.7595 C.3     
  12 N12            0.4240     3.8566     0.2159 N.pl3   
  13 C13            2.9408     4.4964     1.5931 C.2     
  14 O14            2.0599     5.3256     1.7300 O.2     
  15 N15            4.1395     4.6836     2.1799 N.am    
  16 C16            4.3826     5.8848     2.9825 C.3     
  17 C17            5.4988     5.6365     4.0313 C.3     
  18 C18            6.0750     7.0491     4.2638 C.3     
  19 N19            5.7398     7.8572     3.0822 N.am    
  20 C20            5.0092     7.0102     2.1219 C.3     
  21 C21            6.0484     9.1574     2.9065 C.2     
  22 O22            6.7218     9.8248     3.8630 O.3     
  23 C23            7.0932    11.1014     3.5796 C.ar    
  24 C24            6.1608    12.1266     3.6429 C.ar    
  25 C25            6.5407    13.4231     3.3549 C.ar    
  26 C26            7.8491    13.6994     3.0034 C.ar    
  27 C27            8.7803    12.6793     2.9392 C.ar    
  28 C28            8.4066    11.3820     3.2322 C.ar    
  29 O29            5.7190     9.7273     1.8851 O.2     
  30 H30           -1.4682     1.5253    -0.6590 H       
  31 H31           -0.7102     2.8837    -1.5241 H       
  32 H32           -1.2856     1.4626    -2.4284 H       
  33 H33           -0.1714    -0.4253    -3.7968 H       
  34 H34           -0.1037    -1.8294    -2.7049 H       
  35 H35           -1.2386    -0.4987    -2.3741 H       
  36 H36           -0.4598     3.5064     0.0235 H       
  37 H37            0.5355     4.7926     0.4450 H       
  38 H38            4.8413     4.0229     2.0709 H       
  39 H39            3.4645     6.2241     3.4621 H       
  40 H40            5.0791     5.2346     4.9534 H       
  41 H41            6.2625     4.9695     3.6311 H       
  42 H42            5.6268     7.4903     5.1540 H       
  43 H43            7.1574     6.9934     4.3799 H       
  44 H44            5.6966     6.5887     1.3884 H       
  45 H45            4.2291     7.5865     1.6247 H       
  46 H46            5.1385    11.9112     3.9167 H       
  47 H47            5.8152    14.2216     3.4040 H       
  48 H48            8.1442    14.7136     2.7782 H       
  49 H49            9.8015    12.8975     2.6637 H       
  50 H50            9.1354    10.5863     3.1866 H       
@<TRIPOS>BOND
   1    1    2 ar
   2    1    5 ar
   3    1   10 1
   4    2   11 1
   5    2    3 ar
   6    3    4 ar
   7    4    7 ar
   8    5    7 ar
   9    5    6 1
  10    6    9 2
  11    6   12 1
  12    7    8 1
  13    8    9 1
  14    9   13 1
  15   10   30 1
  16   10   31 1
  17   10   32 1
  18   11   33 1
  19   11   34 1
  20   11   35 1
  21   12   36 1
  22   12   37 1
  23   13   14 2
  24   13   15 am
  25   15   16 1
  26   15   38 1
  27   16   17 1
  28   16   20 1
  29   16   39 1
  30   17   18 1
  31   17   40 1
  32   17   41 1
  33   18   19 1
  34   18   42 1
  35   18   43 1
  36   19   20 1
  37   19   21 am
  38   20   44 1
  39   20   45 1
  40   21   22 1
  41   21   29 2
  42   22   23 1
  43   23   24 ar
  44   23   28 ar
  45   24   25 ar
  46   24   46 1
  47   25   26 ar
  48   25   47 1
  49   26   27 ar
  50   26   48 1
  51   27   28 ar
  52   27   49 1
  53   28   50 1

#	End of record

