#	Name: ASD03730284
#	Creating user name:	WinNT
#	Creation time:	15. 06. 2019 20:44

#	Modifying user name:	WinNT
#	Modification time:	15. 06. 2019 20:44

#	Program:	/corina/corina34_cracker 3.40 0067  02.08.2006

@<TRIPOS>MOLECULE
ASD03730284
  57   62    0    0    0
SMALL
NO_CHARGES


@<TRIPOS>ATOM
   1 O1             1.3862     2.0755    -1.8327 O.3     
   2 C2             1.3668     0.6454    -1.9989 C.3     
   3 O3             2.7539     0.3023    -2.1751 O.3     
   4 C4             3.4565     1.2744    -1.5220 C.ar    
   5 C5             2.6156     2.3652    -1.3135 C.ar    
   6 C6             4.7666     1.3165    -1.0797 C.ar    
   7 C7             5.2547     2.4451    -0.4279 C.ar    
   8 C8             4.4083     3.5327    -0.2347 C.ar    
   9 C9             3.0996     3.4910    -0.6685 C.ar    
  10 O10            6.4912     2.6820     0.0968 O.3     
  11 C11            5.2227     4.5920     0.4587 C.3     
  12 C12            6.6656     4.1004     0.2791 C.3     
  13 N13            4.5856     6.7502     0.8554 N.am    
  14 C14            5.0162     5.9525    -0.1423 C.2     
  15 C15            4.8576     4.7373     1.9060 C.ar    
  16 C16            4.8365     3.8614     2.9828 C.ar    
  17 C17            4.4359     4.3163     4.2389 C.ar    
  18 C18            4.0628     5.6358     4.4013 C.ar    
  19 C19            4.0849     6.5066     3.3308 C.ar    
  20 C20            4.4831     6.0663     2.0696 C.ar    
  21 O21            5.2011     6.2712    -1.2979 O.2     
  22 C22            4.2623     8.1690     0.6864 C.3     
  23 C23            2.7847     8.3149     0.3173 C.3     
  24 C24            2.4470     9.7967     0.1408 C.3     
  25 C25            0.9694     9.9426    -0.2283 C.3     
  26 C26            0.6317    11.4244    -0.4048 C.3     
  27 C27            5.2394     2.4456     2.7981 C.ar    
  28 C28            6.5908     2.1084     2.7064 C.ar    
  29 C29            6.9601     0.7879     2.5342 C.ar    
  30 C30            5.9913    -0.1988     2.4529 C.ar    
  31 C31            4.6491     0.1326     2.5436 C.ar    
  32 C32            4.2704     1.4477     2.7212 C.ar    
  33 F33            6.3565    -1.4885     2.2842 F       
  34 F34            7.5356     3.0709     2.7852 F       
  35 H35            0.9628     0.1619    -1.1094 H       
  36 H36            0.7892     0.3702    -2.8813 H       
  37 H37            5.4148     0.4678    -1.2409 H       
  38 H38            2.4507     4.3387    -0.5048 H       
  39 H39            7.2584     4.3061     1.1704 H       
  40 H40            7.1212     4.5510    -0.6027 H       
  41 H41            4.4173     3.6397     5.0805 H       
  42 H42            3.7517     5.9892     5.3733 H       
  43 H43            3.7912     7.5363     3.4712 H       
  44 H44            4.4583     8.6998     1.6180 H       
  45 H45            4.8785     8.5899    -0.1082 H       
  46 H46            2.5887     7.7841    -0.6143 H       
  47 H47            2.1685     7.8940     1.1119 H       
  48 H48            2.6430    10.3275     1.0724 H       
  49 H49            3.0632    10.2176    -0.6538 H       
  50 H50            0.7734     9.4118    -1.1599 H       
  51 H51            0.3532     9.5217     0.5663 H       
  52 H52            1.2479    11.8453    -1.1994 H       
  53 H53           -0.4210    11.5283    -0.6677 H       
  54 H54            0.8277    11.9552     0.5268 H       
  55 H55            8.0052     0.5250     2.4627 H       
  56 H56            3.8977    -0.6405     2.4796 H       
  57 H57            3.2238     1.7034     2.7962 H       
@<TRIPOS>BOND
   1    1    2 1
   2    1    5 1
   3    2    3 1
   4    2   35 1
   5    2   36 1
   6    3    4 1
   7    4    5 ar
   8    4    6 ar
   9    5    9 ar
  10    6    7 ar
  11    6   37 1
  12    7    8 ar
  13    7   10 1
  14    8    9 ar
  15    8   11 1
  16    9   38 1
  17   10   12 1
  18   11   12 1
  19   11   14 1
  20   11   15 1
  21   12   39 1
  22   12   40 1
  23   13   14 am
  24   13   20 1
  25   13   22 1
  26   14   21 2
  27   15   16 ar
  28   15   20 ar
  29   16   17 ar
  30   16   27 1
  31   17   18 ar
  32   17   41 1
  33   18   19 ar
  34   18   42 1
  35   19   20 ar
  36   19   43 1
  37   22   23 1
  38   22   44 1
  39   22   45 1
  40   23   24 1
  41   23   46 1
  42   23   47 1
  43   24   25 1
  44   24   48 1
  45   24   49 1
  46   25   26 1
  47   25   50 1
  48   25   51 1
  49   26   52 1
  50   26   53 1
  51   26   54 1
  52   27   28 ar
  53   27   32 ar
  54   28   29 ar
  55   28   34 1
  56   29   30 ar
  57   29   55 1
  58   30   31 ar
  59   30   33 1
  60   31   32 ar
  61   31   56 1
  62   32   57 1

#	End of record

