#	Name: ASD03081137
#	Creating user name:	WinNT
#	Creation time:	15. 06. 2019 20:27

#	Modifying user name:	WinNT
#	Modification time:	15. 06. 2019 20:27

#	Program:	/corina/corina34_cracker 3.40 0067  02.08.2006

@<TRIPOS>MOLECULE
ASD03081137
  30   33    0    0    0
SMALL
NO_CHARGES


@<TRIPOS>ATOM
   1 O1            -0.0144     1.2085     0.0087 O.3     
   2 N2             0.0021    -0.0041     0.0020 N.2     
   3 C3             1.2348    -0.4425    -0.0121 C.2     
   4 N4             2.0461     0.6356    -0.0141 N.2     
   5 C5             1.2415     1.6828    -0.0008 C.2     
   6 C6             3.0149    -2.1964    -0.0374 C.ar    
   7 C7             1.6621    -1.8641    -0.0231 C.ar    
   8 C8             0.7141    -2.8903    -0.0188 C.ar    
   9 C9             1.1638    -4.1998    -0.0290 C.ar    
  10 C10            2.5240    -4.4477    -0.0429 C.ar    
  11 N11            3.3955    -3.4574    -0.0462 N.ar    
  12 N12            0.3563     6.6192     0.0325 N.pl3   
  13 C13            1.2267     7.6728     0.0296 C.2     
  14 C14            2.4928     7.2220     0.0154 C.2     
  15 C15            2.4272     5.7603     0.0086 C.ar    
  16 C16            3.3918     4.7474    -0.0056 C.ar    
  17 C17            3.0062     3.4407    -0.0091 C.ar    
  18 C18            1.6457     3.1029     0.0026 C.ar    
  19 C19            0.6737     4.0995     0.0168 C.ar    
  20 C20            1.0573     5.4329     0.0199 C.ar    
  21 H21            3.7584    -1.4130    -0.0453 H       
  22 H22           -0.3427    -2.6677    -0.0075 H       
  23 H23            0.4597    -5.0187    -0.0257 H       
  24 H24            2.8784    -5.4678    -0.0509 H       
  25 H25           -0.6106     6.6951     0.0457 H       
  26 H26            0.9396     8.7139     0.0372 H       
  27 H27            3.3890     7.8247     0.0094 H       
  28 H28            4.4416     5.0010    -0.0147 H       
  29 H29            3.7531     2.6606    -0.0204 H       
  30 H30           -0.3736     3.8361     0.0250 H       
@<TRIPOS>BOND
   1    1    2 1
   2    1    5 1
   3    2    3 2
   4    3    4 1
   5    3    7 1
   6    4    5 2
   7    5   18 1
   8    6    7 ar
   9    6   11 ar
  10    6   21 1
  11    7    8 ar
  12    8    9 ar
  13    8   22 1
  14    9   10 ar
  15    9   23 1
  16   10   11 ar
  17   10   24 1
  18   12   13 1
  19   12   20 1
  20   12   25 1
  21   13   14 2
  22   13   26 1
  23   14   15 1
  24   14   27 1
  25   15   16 ar
  26   15   20 ar
  27   16   17 ar
  28   16   28 1
  29   17   18 ar
  30   17   29 1
  31   18   19 ar
  32   19   20 ar
  33   19   30 1

#	End of record

