#	Name: ASD01028711
#	Creating user name:	WinNT
#	Creation time:	15. 06. 2019 18:58

#	Modifying user name:	WinNT
#	Modification time:	15. 06. 2019 18:58

#	Program:	/corina/corina34_cracker 3.40 0067  02.08.2006

@<TRIPOS>MOLECULE
ASD01028711
  47   51    0    0    0
SMALL
NO_CHARGES


@<TRIPOS>ATOM
   1 N1            -0.0159     1.3224     0.0093 N.ar    
   2 C2             0.0021    -0.0041     0.0020 C.ar    
   3 C3             1.1065     2.0253     0.0024 C.ar    
   4 C4             2.3505     1.3910    -0.0134 C.ar    
   5 C5             2.4128     0.0107    -0.0214 C.ar    
   6 C6             1.2206    -0.7066    -0.0134 C.ar    
   7 O7             0.9284    -2.0219    -0.0179 O.3     
   8 C8            -0.4010    -2.2161    -0.0061 C.2     
   9 C9            -1.0404    -1.0375     0.0064 C.2     
  10 C10           -2.5312    -0.8179     0.0218 C.3     
  11 N11           -2.9922    -0.5014    -1.3323 N.pl3   
  12 C12           -4.3374    -0.2576    -1.5679 C.ar    
  13 C13           -5.2625    -0.3078    -0.5383 C.ar    
  14 C14           -6.6028    -0.0595    -0.8028 C.ar    
  15 N15           -7.0268     0.2245    -2.0124 N.ar    
  16 C16           -6.1887     0.2896    -3.0522 C.ar    
  17 C17           -4.8056     0.0561    -2.8679 C.ar    
  18 C18           -6.6573     0.5957    -4.3434 C.ar    
  19 C19           -5.7484     0.6477    -5.3673 C.ar    
  20 C20           -4.3959     0.3993    -5.1109 C.ar    
  21 N21           -3.9680     0.1218    -3.9037 N.ar    
  22 C22            1.0414     3.5074     0.0109 C.ar    
  23 C23           -0.1935     4.1524     0.0262 C.ar    
  24 C24            0.9197     6.2764     0.0269 C.ar    
  25 C25            2.1496     5.6393     0.0175 C.ar    
  26 C26            2.2150     4.2584     0.0095 C.ar    
  27 C27           -0.2494     5.5338     0.0341 C.ar    
  28 F28           -1.4463     6.1603     0.0484 F       
  29 F29            3.2868     6.3685     0.0105 F       
  30 O30           -6.1599     0.9394    -6.6287 O.3     
  31 C31           -5.1570     0.9762    -7.6460 C.3     
  32 H32            3.2584     1.9758    -0.0196 H       
  33 H33            3.3646    -0.4995    -0.0335 H       
  34 H34           -0.8847    -3.1817    -0.0068 H       
  35 H35           -3.0281    -1.7223     0.3727 H       
  36 H36           -2.7696     0.0100     0.6895 H       
  37 H37           -2.3568    -0.4624    -2.0642 H       
  38 H38           -4.9425    -0.5397     0.4668 H       
  39 H39           -7.3153    -0.1015     0.0078 H       
  40 H40           -7.7056     0.7842    -4.5225 H       
  41 H41           -3.6877     0.4428    -5.9251 H       
  42 H42           -1.1056     3.5742     0.0315 H       
  43 H43            0.8723     7.3553     0.0334 H       
  44 H44            3.1744     3.7624     0.0026 H       
  45 H45           -5.6188     1.2197    -8.6029 H       
  46 H46           -4.4149     1.7348    -7.3973 H       
  47 H47           -4.6724     0.0022    -7.7139 H       
@<TRIPOS>BOND
   1    1    2 ar
   2    1    3 ar
   3    2    6 ar
   4    2    9 1
   5    3    4 ar
   6    3   22 1
   7    4    5 ar
   8    4   32 1
   9    5    6 ar
  10    5   33 1
  11    6    7 1
  12    7    8 1
  13    8    9 2
  14    8   34 1
  15    9   10 1
  16   10   11 1
  17   10   35 1
  18   10   36 1
  19   11   12 1
  20   11   37 1
  21   12   13 ar
  22   12   17 ar
  23   13   14 ar
  24   13   38 1
  25   14   15 ar
  26   14   39 1
  27   15   16 ar
  28   16   17 ar
  29   16   18 ar
  30   17   21 ar
  31   18   19 ar
  32   18   40 1
  33   19   20 ar
  34   19   30 1
  35   20   21 ar
  36   20   41 1
  37   22   23 ar
  38   22   26 ar
  39   23   27 ar
  40   23   42 1
  41   24   25 ar
  42   24   27 ar
  43   24   43 1
  44   25   26 ar
  45   25   29 1
  46   26   44 1
  47   27   28 1
  48   30   31 1
  49   31   45 1
  50   31   46 1
  51   31   47 1

#	End of record

