#	Name: ASD01870720
#	Creating user name:	WinNT
#	Creation time:	15. 06. 2019 19:39

#	Modifying user name:	WinNT
#	Modification time:	15. 06. 2019 19:39

#	Program:	/corina/corina34_cracker 3.40 0067  02.08.2006

@<TRIPOS>MOLECULE
ASD01870720
  41   44    0    0    0
SMALL
NO_CHARGES


@<TRIPOS>ATOM
   1 C1            -0.0167     1.3797     0.0096 C.ar    
   2 C2             0.0021    -0.0041     0.0020 C.ar    
   3 C3             1.2039    -0.6875    -0.0127 C.ar    
   4 C4             2.4020     0.0022    -0.0200 C.ar    
   5 C5             1.1837     2.0964     0.0020 C.ar    
   6 C6             1.4361     3.5474     0.0074 C.2     
   7 C7             2.4073     1.3984    -0.0126 C.ar    
   8 C8             3.5281     2.3554    -0.0173 C.2     
   9 C9             2.9335     3.7436    -0.0058 C.3     
  10 C10            3.3483     4.4991    -1.2420 C.ar    
  11 C11            3.9974     5.7139    -1.1243 C.ar    
  12 C12            4.3779     6.4069    -2.2583 C.ar    
  13 C13            4.1096     5.8850    -3.5099 C.ar    
  14 C14            3.4613     4.6698    -3.6275 C.ar    
  15 C15            3.0847     3.9747    -2.4936 C.ar    
  16 O16            0.5970     4.4225     0.0198 O.2     
  17 O17            4.7086     2.0795    -0.0294 O.2     
  18 C18            4.5235     6.6410    -4.7461 C.3     
  19 C19            5.9148     6.2238    -5.1477 C.2     
  20 C20            6.5506     6.8242    -6.3349 C.ar    
  21 O21            6.5113     5.3947    -4.4948 O.2     
  22 N22            5.8942     7.7371    -7.0444 N.ar    
  23 C23            7.8403     6.4339    -6.7026 C.ar    
  24 C24            8.4238     7.0091    -7.8229 C.ar    
  25 C25            7.7001     7.9516    -8.5345 C.ar    
  26 C26            6.4253     8.2958    -8.1083 C.ar    
  27 Cl27           8.7007     5.2475    -5.7720 Cl      
  28 Cl28          -1.5322     2.2263     0.0214 Cl      
  29 H29           -0.9277    -0.5535     0.0080 H       
  30 H30            1.2068    -1.7675    -0.0182 H       
  31 H31            3.3359    -0.5401    -0.0312 H       
  32 H32            3.2506     4.2804     0.8882 H       
  33 H33            4.2070     6.1216    -0.1465 H       
  34 H34            4.8844     7.3563    -2.1664 H       
  35 H35            3.2514     4.2622    -4.6054 H       
  36 H36            2.5814     3.0235    -2.5855 H       
  37 H37            3.8295     6.4195    -5.5569 H       
  38 H38            4.5106     7.7110    -4.5389 H       
  39 H39            9.4197     6.7284    -8.1325 H       
  40 H40            8.1261     8.4179    -9.4105 H       
  41 H41            5.8611     9.0335    -8.6596 H       
@<TRIPOS>BOND
   1    1    2 ar
   2    1    5 ar
   3    1   28 1
   4    2    3 ar
   5    2   29 1
   6    3    4 ar
   7    3   30 1
   8    4    7 ar
   9    4   31 1
  10    5    7 ar
  11    5    6 1
  12    6    9 1
  13    6   16 2
  14    7    8 1
  15    8    9 1
  16    8   17 2
  17    9   10 1
  18    9   32 1
  19   10   11 ar
  20   10   15 ar
  21   11   12 ar
  22   11   33 1
  23   12   13 ar
  24   12   34 1
  25   13   14 ar
  26   13   18 1
  27   14   15 ar
  28   14   35 1
  29   15   36 1
  30   18   19 1
  31   18   37 1
  32   18   38 1
  33   19   20 1
  34   19   21 2
  35   20   23 ar
  36   20   22 ar
  37   22   26 ar
  38   23   24 ar
  39   23   27 1
  40   24   25 ar
  41   24   39 1
  42   25   26 ar
  43   25   40 1
  44   26   41 1

#	End of record

