#	Name: ASD02508299
#	Creating user name:	WinNT
#	Creation time:	15. 06. 2019 20:24

#	Modifying user name:	WinNT
#	Modification time:	15. 06. 2019 20:24

#	Program:	/corina/corina34_cracker 3.40 0067  02.08.2006

@<TRIPOS>MOLECULE
ASD02508299
  45   48    0    0    0
SMALL
NO_CHARGES


@<TRIPOS>ATOM
   1 C1            -0.0168     1.3801     0.0162 C.ar    
   2 C2             0.0033    -0.0057     0.0018 C.ar    
   3 C3            -1.1769    -0.7236     0.0160 C.ar    
   4 C4            -2.3913    -0.0630     0.0443 C.ar    
   5 C5            -2.4220     1.3191     0.0588 C.ar    
   6 C6            -1.2465     2.0397     0.0501 C.ar    
   7 S7            -3.8956    -0.9802     0.0612 S.o2    
   8 C8            -4.3112    -1.2693     1.7489 C.ar    
   9 C9            -5.0972    -0.3600     2.4313 C.ar    
  10 C10           -3.8554    -2.4081     2.3865 C.ar    
  11 C11           -4.1816    -2.6385     3.7143 C.ar    
  12 C12           -4.9658    -1.7201     4.4029 C.ar    
  13 C13           -5.4246    -0.5828     3.7558 C.ar    
  14 O14           -3.7316    -3.7676     4.3268 O.3     
  15 C15           -3.7655    -3.7805     5.7581 C.3     
  16 C16           -5.1341    -3.2546     6.2114 C.3     
  17 O17           -5.2917    -1.9233     5.7087 O.3     
  18 N18            1.2755     1.9140    -0.0015 N.am    
  19 C19            2.2650     0.8336    -0.0300 C.3     
  20 C20            1.4434    -0.4658    -0.0285 C.3     
  21 O21           -4.8981    -0.1165    -0.4567 O.2     
  22 O22           -3.5974    -2.2504    -0.5019 O.2     
  23 C23            1.5680     3.2296     0.0066 C.2     
  24 O24            0.6773     4.0494    -0.0689 O.2     
  25 C25            3.0018     3.6821     0.1094 C.3     
  26 C26            3.1129     0.9240    -1.3004 C.3     
  27 H27           -1.1510    -1.8032     0.0046 H       
  28 H28           -3.3700     1.8361     0.0809 H       
  29 H29           -1.2774     3.1192     0.0615 H       
  30 H30           -5.4559     0.5262     1.9291 H       
  31 H31           -3.2449    -3.1191     1.8497 H       
  32 H32           -6.0352     0.1315     4.2881 H       
  33 H33           -3.6250    -4.7991     6.1199 H       
  34 H34           -2.9768    -3.1385     6.1502 H       
  35 H35           -5.9232    -3.8932     5.8144 H       
  36 H36           -5.1817    -3.2444     7.3003 H       
  37 H37            2.9010     0.8799     0.8540 H       
  38 H38            1.6718    -1.0590     0.8570 H       
  39 H39            1.6398    -1.0409    -0.9334 H       
  40 H40            3.6463     2.8159     0.2590 H       
  41 H41            3.2881     4.1936    -0.8096 H       
  42 H42            3.1080     4.3641     0.9530 H       
  43 H43            3.5819     1.9064    -1.3551 H       
  44 H44            3.8840     0.1539    -1.2781 H       
  45 H45            2.4768     0.7759    -2.1731 H       
@<TRIPOS>BOND
   1    1    2 ar
   2    1   18 1
   3    1    6 ar
   4    2    3 ar
   5    2   20 1
   6    3    4 ar
   7    3   27 1
   8    4    5 ar
   9    4    7 1
  10    5    6 ar
  11    5   28 1
  12    6   29 1
  13    7    8 1
  14    7   21 2
  15    7   22 2
  16    8    9 ar
  17    8   10 ar
  18    9   13 ar
  19    9   30 1
  20   10   11 ar
  21   10   31 1
  22   11   12 ar
  23   11   14 1
  24   12   13 ar
  25   12   17 1
  26   13   32 1
  27   14   15 1
  28   15   16 1
  29   15   33 1
  30   15   34 1
  31   16   17 1
  32   16   35 1
  33   16   36 1
  34   18   19 1
  35   18   23 am
  36   19   20 1
  37   19   26 1
  38   19   37 1
  39   20   38 1
  40   20   39 1
  41   23   24 2
  42   23   25 1
  43   25   40 1
  44   25   41 1
  45   25   42 1
  46   26   43 1
  47   26   44 1
  48   26   45 1

#	End of record

