#	Name: ASD01911521
#	Creating user name:	WinNT
#	Creation time:	15. 06. 2019 19:57

#	Modifying user name:	WinNT
#	Modification time:	15. 06. 2019 19:57

#	Program:	/corina/corina34_cracker 3.40 0067  02.08.2006

@<TRIPOS>MOLECULE
ASD01911521
  36   38    0    0    0
SMALL
NO_CHARGES


@<TRIPOS>ATOM
   1 N1            -0.0085     1.4075    -0.0032 N.2     
   2 N2            -0.0056     0.0075    -0.0443 N.pl3   
   3 C3             1.2395     1.8250     0.0374 C.2     
   4 C4             2.0817     0.7005     0.0235 C.2     
   5 C5             1.2922    -0.4106    -0.0270 C.2     
   6 C6             1.7592    -1.8148    -0.0569 C.ar    
   7 C7             1.6811     3.2413     0.0883 C.ar    
   8 C8            -1.1884    -0.8554    -0.0961 C.3     
   9 C9            -1.6266    -1.0216    -1.5283 C.2     
  10 O10           -2.6976    -1.7766    -1.8192 O.3     
  11 O11           -1.0138    -0.4753    -2.4149 O.2     
  12 C12            0.7389     4.2675     0.0967 C.ar    
  13 C13            3.0391     3.5489     0.1336 C.ar    
  14 C14            3.4442     4.8675     0.1812 C.ar    
  15 C15            2.5047     5.8826     0.1845 C.ar    
  16 C16            1.1550     5.5826     0.1445 C.ar    
  17 C17            3.0227    -2.1422     0.4376 C.ar    
  18 C18            0.9365    -2.8128    -0.5731 C.ar    
  19 C19            1.3836    -4.1328    -0.5972 C.ar    
  20 C20            2.6528    -4.4458    -0.1038 C.ar    
  21 C21            3.4604    -3.4519     0.4112 C.ar    
  22 C22            0.5441    -5.1655    -1.1257 C.1     
  23 N23           -0.1218    -5.9847    -1.5451 N.1     
  24 H24            3.1614     0.7136     0.0485 H       
  25 H25           -0.9451    -1.8309     0.3250 H       
  26 H26           -1.9947    -0.4018     0.4803 H       
  27 H27           -2.9403    -1.8535    -2.7520 H       
  28 H28           -0.3152     4.0344     0.0655 H       
  29 H29            3.7735     2.7571     0.1317 H       
  30 H30            4.4967     5.1071     0.2164 H       
  31 H31            2.8260     6.9130     0.2223 H       
  32 H32            0.4255     6.3790     0.1470 H       
  33 H33            3.6598    -1.3693     0.8415 H       
  34 H34           -0.0438    -2.5651    -0.9528 H       
  35 H35            3.0009    -5.4681    -0.1212 H       
  36 H36            4.4408    -3.6988     0.7910 H       
@<TRIPOS>BOND
   1    1    2 1
   2    1    3 2
   3    2    8 1
   4    2    5 1
   5    3    4 1
   6    3    7 1
   7    4    5 2
   8    4   24 1
   9    5    6 1
  10    6   18 ar
  11    6   17 ar
  12    7   12 ar
  13    7   13 ar
  14    8    9 1
  15    8   25 1
  16    8   26 1
  17    9   10 1
  18    9   11 2
  19   10   27 1
  20   12   16 ar
  21   12   28 1
  22   13   14 ar
  23   13   29 1
  24   14   15 ar
  25   14   30 1
  26   15   16 ar
  27   15   31 1
  28   16   32 1
  29   17   21 ar
  30   17   33 1
  31   18   19 ar
  32   18   34 1
  33   19   20 ar
  34   19   22 1
  35   20   21 ar
  36   20   35 1
  37   21   36 1
  38   22   23 3

#	End of record

