#	Name: ASD01410929
#	Creating user name:	WinNT
#	Creation time:	15. 06. 2019 19:19

#	Modifying user name:	WinNT
#	Modification time:	15. 06. 2019 19:19

#	Program:	/corina/corina34_cracker 3.40 0067  02.08.2006

@<TRIPOS>MOLECULE
ASD01410929
  70   72    0    0    0
SMALL
NO_CHARGES


@<TRIPOS>ATOM
   1 S1             0.3761     2.1662    -0.2302 S.3     
   2 C2             0.0149     0.4573    -0.0297 C.2     
   3 C3             1.1846    -0.2664    -0.0365 C.2     
   4 C4             2.3202     0.4910    -0.1929 C.2     
   5 C5             2.0999     1.8324    -0.3154 C.2     
   6 C6             3.1213     2.8211    -0.4881 C.1     
   7 C7             3.9587     3.6317    -0.6297 C.1     
   8 C8             5.0086     4.6479    -0.8072 C.3     
   9 C9             6.3785     3.9670    -0.8321 C.3     
  10 C10            4.7833     5.3889    -2.1268 C.3     
  11 C11           -1.2807    -0.0898     0.1167 C.2     
  12 N12            1.2153    -1.6545     0.1047 N.am    
  13 O13           -2.3498     0.7271     0.2275 O.3     
  14 O14           -1.4320    -1.2973     0.1428 O.2     
  15 C15            1.1956    -2.2555     1.4405 C.3     
  16 C16            1.2632    -2.4420    -0.9880 C.2     
  17 C17            1.2081    -3.9407    -0.8397 C.3     
  18 O18            1.3507    -1.9446    -2.0907 O.2     
  19 C19            2.6008    -2.3258     1.9806 C.2     
  20 C20            0.9600    -4.5798    -2.2075 C.3     
  21 C21            2.0965    -4.2030    -3.1601 C.3     
  22 C22            3.4250    -4.7087    -2.5943 C.3     
  23 C23            3.6731    -4.0696    -1.2264 C.3     
  24 C24            2.5366    -4.4464    -0.2739 C.3     
  25 C25            4.5615    -4.3320    -3.5469 C.3     
  26 N26            2.8287    -2.8544     3.1992 N.am    
  27 O27            3.5265    -1.9066     1.3186 O.2     
  28 C28            4.9554     5.6443     0.3526 C.3     
  29 C29            4.1930    -2.9298     3.7392 C.3     
  30 C30            4.4794    -4.3760     4.1555 C.3     
  31 C31            3.3929    -4.8483     5.1243 C.3     
  32 C32            2.0316    -4.8071     4.4263 C.3     
  33 C33            1.7169    -3.3607     4.0154 C.3     
  34 O34            3.6746    -6.1863     5.5399 O.3     
  35 H35            3.3097     0.0588    -0.2168 H       
  36 H36            6.4165     3.2572    -1.6585 H       
  37 H37            7.1560     4.7196    -0.9636 H       
  38 H38            6.5390     3.4392     0.1079 H       
  39 H39            3.8074     5.8740    -2.1091 H       
  40 H40            5.5608     6.1414    -2.2583 H       
  41 H41            4.8213     4.6790    -2.9531 H       
  42 H42           -3.1920     0.2618     0.3235 H       
  43 H43            0.5814    -1.6466     2.1039 H       
  44 H44            0.7788    -3.2609     1.3805 H       
  45 H45            0.3985    -4.2091    -0.1610 H       
  46 H46            0.9202    -5.6637    -2.1002 H       
  47 H47            0.0136    -4.2195    -2.6106 H       
  48 H48            1.9198    -4.6583    -4.1345 H       
  49 H49            2.1364    -3.1191    -3.2674 H       
  50 H50            3.3851    -5.7927    -2.4870 H       
  51 H51            4.6195    -4.4299    -0.8233 H       
  52 H52            3.7129    -2.9857    -1.3337 H       
  53 H53            2.7133    -3.9911     0.7006 H       
  54 H54            2.4967    -5.5304    -0.1666 H       
  55 H55            4.6014    -3.2480    -3.6542 H       
  56 H56            5.5079    -4.6923    -3.1438 H       
  57 H57            4.3848    -4.7873    -4.5213 H       
  58 H58            5.1159     5.1165     1.2927 H       
  59 H59            5.7328     6.3969     0.2212 H       
  60 H60            3.9794     6.1294     0.3704 H       
  61 H61            4.9062    -2.6216     2.9747 H       
  62 H62            4.2792    -2.2758     4.6070 H       
  63 H63            4.4822    -5.0149     3.2725 H       
  64 H64            5.4515    -4.4277     4.6458 H       
  65 H65            3.3741    -4.1940     5.9959 H       
  66 H66            2.0575    -5.4421     3.5407 H       
  67 H67            1.2616    -5.1658     5.1093 H       
  68 H68            1.6052    -2.7412     4.9053 H       
  69 H69            0.7957    -3.3370     3.4332 H       
  70 H70            3.0255    -6.5515     6.1566 H       
@<TRIPOS>BOND
   1    1    2 1
   2    1    5 1
   3    2    3 2
   4    2   11 1
   5    3    4 1
   6    3   12 1
   7    4    5 2
   8    4   35 1
   9    5    6 1
  10    6    7 3
  11    7    8 1
  12    8    9 1
  13    8   10 1
  14    8   28 1
  15    9   36 1
  16    9   37 1
  17    9   38 1
  18   10   39 1
  19   10   40 1
  20   10   41 1
  21   11   13 1
  22   11   14 2
  23   12   15 1
  24   12   16 am
  25   13   42 1
  26   15   19 1
  27   15   43 1
  28   15   44 1
  29   16   17 1
  30   16   18 2
  31   17   20 1
  32   17   24 1
  33   17   45 1
  34   19   26 am
  35   19   27 2
  36   20   21 1
  37   20   46 1
  38   20   47 1
  39   21   22 1
  40   21   48 1
  41   21   49 1
  42   22   23 1
  43   22   25 1
  44   22   50 1
  45   23   24 1
  46   23   51 1
  47   23   52 1
  48   24   53 1
  49   24   54 1
  50   25   55 1
  51   25   56 1
  52   25   57 1
  53   26   29 1
  54   26   33 1
  55   28   58 1
  56   28   59 1
  57   28   60 1
  58   29   30 1
  59   29   61 1
  60   29   62 1
  61   30   31 1
  62   30   63 1
  63   30   64 1
  64   31   32 1
  65   31   34 1
  66   31   65 1
  67   32   33 1
  68   32   66 1
  69   32   67 1
  70   33   68 1
  71   33   69 1
  72   34   70 1

#	End of record

