#	Name: ASD04880477
#	Creating user name:	WinNT
#	Creation time:	15. 06. 2019 20:53

#	Modifying user name:	WinNT
#	Modification time:	15. 06. 2019 20:53

#	Program:	/corina/corina34_cracker 3.40 0067  02.08.2006

@<TRIPOS>MOLECULE
ASD04880477
  40   42    0    0    0
SMALL
NO_CHARGES


@<TRIPOS>ATOM
   1 C1             0.1557     1.3481    -0.3479 C.2     
   2 O2             0.5455     0.2119    -0.1591 O.2     
   3 N3             1.0234     2.3774    -0.2850 N.am    
   4 N4             0.7299     3.7048    -0.5908 N.2     
   5 C5             1.7270     4.5094    -0.4538 C.2     
   6 C6             2.9402     3.7357     0.0104 C.3     
   7 C7             2.4339     2.2841     0.1241 C.3     
   8 C8             1.6906     5.9605    -0.7106 C.ar    
   9 C9             0.4772     6.5908    -1.0005 C.ar    
  10 C10            0.4479     7.9474    -1.2394 C.ar    
  11 C11            1.6220     8.6886    -1.1928 C.ar    
  12 C12            2.8299     8.0666    -0.9050 C.ar    
  13 C13            2.8680     6.7111    -0.6591 C.ar    
  14 C14           -0.7969     5.7877    -1.0523 C.3     
  15 F15           -1.8512     6.6117    -1.4606 F       
  16 F16           -0.6482     4.7354    -1.9621 F       
  17 F17           -1.0741     5.2705     0.2176 F       
  18 O18            1.5885    10.0258    -1.4298 O.3     
  19 C19            2.8318    10.7274    -1.3660 C.3     
  20 C20           -1.2685     1.5997    -0.6524 C.ar    
  21 C21           -2.1350     0.5303    -0.8851 C.ar    
  22 C22           -3.4652     0.7729    -1.1688 C.ar    
  23 C23           -3.9383     2.0745    -1.2221 C.ar    
  24 C24           -3.0832     3.1371    -0.9927 C.ar    
  25 C25           -1.7539     2.9075    -0.7028 C.ar    
  26 F26           -4.3060    -0.2602    -1.3948 F       
  27 H27            3.7433     3.8078    -0.7230 H       
  28 H28            3.2754     4.0973     0.9826 H       
  29 H29            2.5126     1.9278     1.1512 H       
  30 H30            2.9872     1.6327    -0.5524 H       
  31 H31           -0.4891     8.4353    -1.4635 H       
  32 H32            3.7402     8.6467    -0.8702 H       
  33 H33            3.8072     6.2289    -0.4314 H       
  34 H34            3.5194    10.3161    -2.1050 H       
  35 H35            2.6638    11.7840    -1.5744 H       
  36 H36            3.2604    10.6172    -0.3699 H       
  37 H37           -1.7664    -0.4841    -0.8439 H       
  38 H38           -4.9788     2.2599    -1.4442 H       
  39 H39           -3.4580     4.1490    -1.0361 H       
  40 H40           -1.0890     3.7385    -0.5192 H       
@<TRIPOS>BOND
   1    1    2 2
   2    1    3 am
   3    1   20 1
   4    3    4 1
   5    3    7 1
   6    4    5 2
   7    5    6 1
   8    5    8 1
   9    6    7 1
  10    6   27 1
  11    6   28 1
  12    7   29 1
  13    7   30 1
  14    8    9 ar
  15    8   13 ar
  16    9   10 ar
  17    9   14 1
  18   10   11 ar
  19   10   31 1
  20   11   12 ar
  21   11   18 1
  22   12   13 ar
  23   12   32 1
  24   13   33 1
  25   14   15 1
  26   14   16 1
  27   14   17 1
  28   18   19 1
  29   19   34 1
  30   19   35 1
  31   19   36 1
  32   20   21 ar
  33   20   25 ar
  34   21   22 ar
  35   21   37 1
  36   22   23 ar
  37   22   26 1
  38   23   24 ar
  39   23   38 1
  40   24   25 ar
  41   24   39 1
  42   25   40 1

#	End of record

