#	Name: ASD06670001
#	Creating user name:	WinNT
#	Creation time:	15. 06. 2019 21:08

#	Modifying user name:	WinNT
#	Modification time:	15. 06. 2019 21:08

#	Program:	/corina/corina34_cracker 3.40 0067  02.08.2006

@<TRIPOS>MOLECULE
ASD06670001
  46   47    0    0    0
SMALL
NO_CHARGES


@<TRIPOS>ATOM
   1 C1            -0.0158     1.3165     0.0093 C.ar    
   2 N2             0.0021    -0.0041     0.0020 N.ar    
   3 C3             1.1480    -0.6767    -0.0126 C.ar    
   4 C4             2.3510     0.0500    -0.0202 C.ar    
   5 C5             2.2784     1.4530    -0.0120 C.ar    
   6 N6             1.0849     2.0380     0.0026 N.ar    
   7 N7             3.6643    -0.2817    -0.0350 N.2     
   8 C8             4.3848     0.8020    -0.0364 C.2     
   9 N9             3.5758     1.8990    -0.0225 N.pl3   
  10 N10            1.1567    -2.0605    -0.0196 N.pl3   
  11 C11            4.0117     3.2977    -0.0200 C.3     
  12 C12            4.0678     3.8493     1.4273 C.3     
  13 C13            5.0958     4.9995     1.2964 C.3     
  14 C14            5.8876     4.6548     0.0201 C.3     
  15 O15            5.3778     3.4052    -0.4747 O.3     
  16 O16            4.4270     6.2534     1.1467 O.3     
  17 O17            2.7919     4.3494     1.8323 O.3     
  18 C18            7.3746     4.5150     0.3522 C.3     
  19 O19            8.1148     4.3111    -0.8530 O.3     
  20 P20            9.7136     4.1232    -0.8790 P.3     
  21 O21           10.3563     5.2713    -0.2013 O.2     
  22 O22           10.1064     2.7611    -0.1159 O.3     
  23 O23           10.2204     4.0486    -2.4053 O.3     
  24 P24           11.6612     4.1744    -3.1128 P.3     
  25 O25           11.4648     4.5293    -4.6709 O.3     
  26 O26           12.4751     5.2949    -2.4279 O.co2   
  27 O27           12.4182     2.8340    -2.9813 O.co2   
  28 P28           12.4453     5.0737    -5.8261 P.3     
  29 O29           12.7138     6.5793    -5.6064 O.3     
  30 O30           13.7813     4.2995    -5.7748 O.2     
  31 O31           11.7536     4.8561    -7.2636 O.3     
  32 H32           -0.9695     1.8234     0.0165 H       
  33 H33            5.4645     0.8284    -0.0466 H       
  34 H34            0.3198    -2.5508    -0.0139 H       
  35 H35            1.9998    -2.5402    -0.0303 H       
  36 H36            3.3502     3.9057    -0.6372 H       
  37 H37            4.4233     3.0870     2.1207 H       
  38 H38            5.7577     5.0200     2.1621 H       
  39 H39            5.7445     5.4354    -0.7270 H       
  40 H40            3.8669     6.4925     1.8978 H       
  41 H41            2.7763     4.7055     2.7312 H       
  42 H42            7.7240     5.4229     0.8439 H       
  43 H43            7.5200     3.6631     1.0165 H       
  44 H44            9.7192     1.9657    -0.5066 H       
  45 H45           12.2894     5.1620    -8.0082 H       
  46 Mg46          18.7813    11.5793     7.7312 Du      
@<TRIPOS>BOND
   1    1    2 ar
   2    1    6 ar
   3    1   32 1
   4    2    3 ar
   5    3    4 ar
   6    3   10 1
   7    4    5 ar
   8    4    7 1
   9    5    6 ar
  10    5    9 1
  11    7    8 2
  12    8    9 1
  13    8   33 1
  14    9   11 1
  15   10   34 1
  16   10   35 1
  17   11   12 1
  18   11   15 1
  19   11   36 1
  20   12   13 1
  21   12   17 1
  22   12   37 1
  23   13   14 1
  24   13   16 1
  25   13   38 1
  26   14   15 1
  27   14   18 1
  28   14   39 1
  29   16   40 1
  30   17   41 1
  31   18   19 1
  32   18   42 1
  33   18   43 1
  34   19   20 1
  35   20   21 2
  36   20   22 1
  37   20   23 1
  38   22   44 1
  39   23   24 1
  40   24   25 1
  41   24   26 ar
  42   24   27 ar
  43   25   28 1
  44   28   29 1
  45   28   30 2
  46   28   31 1
  47   31   45 1

#	End of record

