#	Name: ASD03332177
#	Creating user name:	WinNT
#	Creation time:	15. 06. 2019 20:40

#	Modifying user name:	WinNT
#	Modification time:	15. 06. 2019 20:40

#	Program:	/corina/corina34_cracker 3.40 0067  02.08.2006

@<TRIPOS>MOLECULE
ASD03332177
  55   57    0    0    0
SMALL
NO_CHARGES


@<TRIPOS>ATOM
   1 C1             0.1160     1.9788    -0.7940 C.2     
   2 N2             0.1535     0.7441    -1.3478 N.pl3   
   3 C3             1.4652     0.4068    -1.5126 C.2     
   4 N4             2.2094     1.3881    -1.0594 N.2     
   5 C5             1.4059     2.3743    -0.6051 C.2     
   6 C6             1.8457     3.6494    -0.0116 C.2     
   7 O7             1.0220     4.4626     0.3618 O.2     
   8 N8             3.1609     3.9145     0.1174 N.am    
   9 C9            -1.0156    -0.0727    -1.6849 C.3     
  10 C10           -2.0330     0.7916    -2.4361 C.3     
  11 C11           -2.9516     1.4906    -1.4388 C.3     
  12 N12           -2.2328     1.8250    -0.2075 N.3     
  13 C13           -1.1302     2.7616    -0.4703 C.3     
  14 C14            1.9650    -0.8544    -2.1030 C.ar    
  15 C15            3.1876    -0.8773    -2.7746 C.ar    
  16 C16            3.6481    -2.0566    -3.3231 C.ar    
  17 C17            2.9000    -3.2147    -3.2084 C.ar    
  18 C18            1.6866    -3.1985    -2.5440 C.ar    
  19 C19            1.2183    -2.0270    -1.9855 C.ar    
  20 C20            3.5981     5.1822     0.7074 C.3     
  21 C21            3.6244     5.0531     2.2317 C.3     
  22 C22            4.9796     5.5187     0.2079 C.2     
  23 C23            2.2104     4.7721     2.7442 C.3     
  24 C24            4.5494     3.9014     2.6302 C.3     
  25 O25            4.1055     6.2705     2.8047 O.3     
  26 N26            5.4105     6.7955     0.2269 N.am    
  27 O27            5.7035     4.6405    -0.2111 O.2     
  28 C28            6.7880     7.1095    -0.1607 C.3     
  29 H29            3.8179     3.2660    -0.1804 H       
  30 H30           -0.7080    -0.9057    -2.3171 H       
  31 H31           -1.4681    -0.4561    -0.7703 H       
  32 H32           -1.5059     1.5391    -3.0290 H       
  33 H33           -2.6279     0.1603    -3.0961 H       
  34 H34           -3.3371     2.4058    -1.8880 H       
  35 H35           -3.7861     0.8319    -1.1984 H       
  36 H36           -2.8620     2.1937     0.4897 H       
  37 H37           -0.9556     3.3758     0.4131 H       
  38 H38           -1.3885     3.4008    -1.3146 H       
  39 H39            3.7721     0.0263    -2.8654 H       
  40 H40            4.5944    -2.0757    -3.8433 H       
  41 H41            3.2646    -4.1353    -3.6397 H       
  42 H42            1.1071    -4.1058    -2.4582 H       
  43 H43            0.2711    -2.0157    -1.4668 H       
  44 H44            2.9056     5.9739     0.4217 H       
  45 H45            1.8852     3.7922     2.3945 H       
  46 H46            2.2091     4.7878     3.8340 H       
  47 H47            1.5295     5.5361     2.3690 H       
  48 H48            5.5568     4.1015     2.2651 H       
  49 H49            4.5681     3.8094     3.7161 H       
  50 H50            4.1824     2.9727     2.1931 H       
  51 H51            5.0037     6.5048     2.5337 H       
  52 H52            4.8086     7.5066     0.4971 H       
  53 H53            7.4795     6.5884     0.5014 H       
  54 H54            6.9582     6.7894    -1.1886 H       
  55 H55            6.9512     8.1845    -0.0832 H       
@<TRIPOS>BOND
   1    1    2 1
   2    1    5 2
   3    1   13 1
   4    2    3 1
   5    2    9 1
   6    3    4 2
   7    3   14 1
   8    4    5 1
   9    5    6 1
  10    6    7 2
  11    6    8 am
  12    8   20 1
  13    8   29 1
  14    9   10 1
  15    9   30 1
  16    9   31 1
  17   10   11 1
  18   10   32 1
  19   10   33 1
  20   11   12 1
  21   11   34 1
  22   11   35 1
  23   12   13 1
  24   12   36 1
  25   13   37 1
  26   13   38 1
  27   14   15 ar
  28   14   19 ar
  29   15   16 ar
  30   15   39 1
  31   16   17 ar
  32   16   40 1
  33   17   18 ar
  34   17   41 1
  35   18   19 ar
  36   18   42 1
  37   19   43 1
  38   20   21 1
  39   20   22 1
  40   20   44 1
  41   21   23 1
  42   21   24 1
  43   21   25 1
  44   22   26 am
  45   22   27 2
  46   23   45 1
  47   23   46 1
  48   23   47 1
  49   24   48 1
  50   24   49 1
  51   24   50 1
  52   25   51 1
  53   26   28 1
  54   26   52 1
  55   28   53 1
  56   28   54 1
  57   28   55 1

#	End of record

