#	Name: ASD03240105
#	Creating user name:	WinNT
#	Creation time:	15. 06. 2019 20:34

#	Modifying user name:	WinNT
#	Modification time:	15. 06. 2019 20:34

#	Program:	/corina/corina34_cracker 3.40 0067  02.08.2006

@<TRIPOS>MOLECULE
ASD03240105
  64   69    0    0    0
SMALL
NO_CHARGES


@<TRIPOS>ATOM
   1 C1            -0.0172     1.4161     0.0098 C.ar    
   2 C2             0.0021    -0.0041     0.0020 C.ar    
   3 C3             1.1944     2.1238     0.0021 C.ar    
   4 C4             2.3741     1.3943    -0.0132 C.ar    
   5 C5             2.3168    -0.0170    -0.0203 C.ar    
   6 N6             1.1632    -0.6586    -0.0127 N.ar    
   7 C7             3.5780    -0.7936    -0.0370 C.ar    
   8 C8             3.6832     2.0897    -0.0224 C.ar    
   9 C9             3.9287     3.1071    -0.9434 C.ar    
  10 C10            5.1491     3.7512    -0.9470 C.ar    
  11 C11            6.1280     3.3890    -0.0391 C.ar    
  12 C12            5.8903     2.3799     0.8768 C.ar    
  13 C13            4.6717     1.7327     0.8936 C.ar    
  14 C14            3.6631    -2.0058     0.6475 C.ar    
  15 C15            4.8407    -2.7246     0.6281 C.ar    
  16 C16            5.9358    -2.2450    -0.0680 C.ar    
  17 C17            5.8577    -1.0432    -0.7489 C.ar    
  18 C18            4.6836    -0.3183    -0.7421 C.ar    
  19 C19            7.2193    -3.0345    -0.0842 C.3     
  20 N20           -1.1674    -0.6568     0.0102 N.ar    
  21 C21           -2.3050     0.0125     0.0251 C.ar    
  22 N22           -2.3572     1.3437     0.0327 N.ar    
  23 C23           -1.2610     2.0734     0.0311 C.ar    
  24 S24           -3.8170    -0.8921     0.0348 S.3     
  25 C25           -5.0018     0.4762     0.0542 C.3     
  26 N26            7.2094    -3.9619    -1.2235 N.3     
  27 C27            8.5295    -4.5763    -1.4135 C.3     
  28 C28            8.5219    -5.4203    -2.6900 C.3     
  29 C29            7.4461    -6.5036    -2.5733 C.3     
  30 C30            6.0886    -5.8394    -2.3276 C.3     
  31 C31            6.1667    -4.9832    -1.0616 C.3     
  32 C32            7.3930    -7.3004    -3.8514 C.2     
  33 N33            7.1346    -6.8335    -5.0294 N.2     
  34 N34            7.1300    -7.6412    -5.9977 N.2     
  35 C35            7.3865    -8.8922    -5.7418 C.2     
  36 S36            7.6798    -9.0348    -4.0072 S.3     
  37 N37            7.4276    -9.9251    -6.6666 N.pl3   
  38 H38            1.2080     3.2037     0.0074 H       
  39 H39            3.1653     3.3904    -1.6529 H       
  40 H40            5.3405     4.5393    -1.6602 H       
  41 H41            7.0817     3.8959    -0.0456 H       
  42 H42            6.6584     2.1012     1.5830 H       
  43 H43            4.4871     0.9452     1.6093 H       
  44 H44            2.8090    -2.3809     1.1918 H       
  45 H45            4.9078    -3.6635     1.1577 H       
  46 H46            6.7160    -0.6737    -1.2902 H       
  47 H47            4.6236     0.6196    -1.2743 H       
  48 H48            8.0643    -2.3525    -0.1783 H       
  49 H49            7.3100    -3.5996     0.8434 H       
  50 H50           -1.3156     3.1520     0.0373 H       
  51 H51           -6.0164     0.0781     0.0618 H       
  52 H52           -4.8424     1.0821     0.9461 H       
  53 H53           -4.8598     1.0922    -0.8338 H       
  54 H54            9.2848    -3.7950    -1.4992 H       
  55 H55            8.7605    -5.2123    -0.5589 H       
  56 H56            8.3046    -4.7824    -3.5468 H       
  57 H57            9.4972    -5.8887    -2.8224 H       
  58 H58            7.6841    -7.1651    -1.7403 H       
  59 H59            5.8329    -5.2081    -3.1787 H       
  60 H60            5.3253    -6.6072    -2.2011 H       
  61 H61            6.4088    -5.6173    -0.2087 H       
  62 H62            5.2058    -4.4975    -0.8917 H       
  63 H63            7.2556    -9.7441    -7.6039 H       
  64 H64            7.6284   -10.8286    -6.3760 H       
@<TRIPOS>BOND
   1    1    2 ar
   2    1    3 ar
   3    1   23 ar
   4    2   20 ar
   5    2    6 ar
   6    3    4 ar
   7    3   38 1
   8    4    5 ar
   9    4    8 1
  10    5    6 ar
  11    5    7 1
  12    7   14 ar
  13    7   18 ar
  14    8    9 ar
  15    8   13 ar
  16    9   10 ar
  17    9   39 1
  18   10   11 ar
  19   10   40 1
  20   11   12 ar
  21   11   41 1
  22   12   13 ar
  23   12   42 1
  24   13   43 1
  25   14   15 ar
  26   14   44 1
  27   15   16 ar
  28   15   45 1
  29   16   17 ar
  30   16   19 1
  31   17   18 ar
  32   17   46 1
  33   18   47 1
  34   19   26 1
  35   19   48 1
  36   19   49 1
  37   20   21 ar
  38   21   22 ar
  39   21   24 1
  40   22   23 ar
  41   23   50 1
  42   24   25 1
  43   25   51 1
  44   25   52 1
  45   25   53 1
  46   26   27 1
  47   26   31 1
  48   27   28 1
  49   27   54 1
  50   27   55 1
  51   28   29 1
  52   28   56 1
  53   28   57 1
  54   29   30 1
  55   29   32 1
  56   29   58 1
  57   30   31 1
  58   30   59 1
  59   30   60 1
  60   31   61 1
  61   31   62 1
  62   32   33 2
  63   32   36 1
  64   33   34 1
  65   34   35 2
  66   35   36 1
  67   35   37 1
  68   37   63 1
  69   37   64 1

#	End of record

