#	Name: ASD01901294
#	Creating user name:	WinNT
#	Creation time:	15. 06. 2019 19:53

#	Modifying user name:	WinNT
#	Modification time:	15. 06. 2019 19:53

#	Program:	/corina/corina34_cracker 3.40 0067  02.08.2006

@<TRIPOS>MOLECULE
ASD01901294
  45   48    0    0    0
SMALL
NO_CHARGES


@<TRIPOS>ATOM
   1 C1            -0.0158     1.3123     0.0093 C.ar    
   2 N2             0.0021    -0.0041     0.0020 N.ar    
   3 C3             1.1316    -0.6859    -0.0124 C.ar    
   4 C4             2.3557    -0.0416    -0.0202 C.ar    
   5 C5             2.3936     1.3414    -0.0131 C.ar    
   6 C6             1.1782     2.0387     0.0018 C.ar    
   7 C7             1.1598     3.4705     0.0091 C.1     
   8 C8             1.1447     4.6444     0.0152 C.1     
   9 C9             1.1264     6.0763     0.0225 C.ar    
  10 C10           -0.1060     8.1410     0.0507 C.ar    
  11 C11           -0.0921     6.7612     0.0432 C.ar    
  12 C12            2.3269     6.7923     0.0149 C.ar    
  13 C13            2.3055     8.1720     0.0226 C.ar    
  14 C14            1.0908     8.8506     0.0378 C.ar    
  15 N15            1.0729    10.2503     0.0446 N.am    
  16 N16            0.9561    12.2720    -1.1667 N.am    
  17 C17            1.0320    10.9240    -1.1118 C.2     
  18 C18            1.0801    10.9168     1.2177 C.2     
  19 C19            0.4308    12.8321    -2.4163 C.3     
  20 O20            0.9646    10.3220     2.2727 O.2     
  21 O21            1.0631    10.3059    -2.1569 O.2     
  22 C22            1.2691    13.0423    -0.0633 C.ar    
  23 F23           -1.2832     8.8037     0.0707 F       
  24 F24            3.4653     8.8649     0.0157 F       
  25 C25            1.2308    12.3821     1.1905 C.ar    
  26 C26            1.6746    14.3635    -0.0740 C.ar    
  27 C27            1.3091    13.1041     2.3783 C.ar    
  28 C28            1.5578    14.4578     2.3357 C.ar    
  29 C29            1.7700    15.0722     1.1156 C.ar    
  30 C30            2.1032    15.0951    -1.3226 C.3     
  31 H31           -0.9608     1.8351     0.0166 H       
  32 H32            1.1000    -1.7654    -0.0179 H       
  33 H33            3.2725    -0.6123    -0.0312 H       
  34 H34            3.3354     1.8699    -0.0185 H       
  35 H35           -1.0214     6.2110     0.0529 H       
  36 H36            3.2701     6.2663     0.0035 H       
  37 H37            0.1866    12.0219    -3.1033 H       
  38 H38           -0.4674    13.4125    -2.2050 H       
  39 H39            1.1827    13.4783    -2.8692 H       
  40 H40            1.1747    12.6053     3.3277 H       
  41 H41            1.5869    15.0328     3.2482 H       
  42 H42            2.0160    16.1240     1.0784 H       
  43 H43            1.2355    15.5679    -1.7826 H       
  44 H44            2.8375    15.8577    -1.0629 H       
  45 H45            2.5462    14.3880    -2.0240 H       
@<TRIPOS>BOND
   1    1    2 ar
   2    1    6 ar
   3    1   31 1
   4    2    3 ar
   5    3    4 ar
   6    3   32 1
   7    4    5 ar
   8    4   33 1
   9    5    6 ar
  10    5   34 1
  11    6    7 1
  12    7    8 3
  13    8    9 1
  14    9   12 ar
  15    9   11 ar
  16   10   11 ar
  17   10   14 ar
  18   10   23 1
  19   11   35 1
  20   12   13 ar
  21   12   36 1
  22   13   14 ar
  23   13   24 1
  24   14   15 1
  25   15   18 am
  26   15   17 am
  27   16   17 am
  28   16   22 1
  29   16   19 1
  30   17   21 2
  31   18   25 1
  32   18   20 2
  33   19   37 1
  34   19   38 1
  35   19   39 1
  36   22   25 ar
  37   22   26 ar
  38   25   27 ar
  39   26   29 ar
  40   26   30 1
  41   27   28 ar
  42   27   40 1
  43   28   29 ar
  44   28   41 1
  45   29   42 1
  46   30   43 1
  47   30   44 1
  48   30   45 1

#	End of record

