#	Name: ASD04220036
#	Creating user name:	WinNT
#	Creation time:	15. 06. 2019 20:48

#	Modifying user name:	WinNT
#	Modification time:	15. 06. 2019 20:48

#	Program:	/corina/corina34_cracker 3.40 0067  02.08.2006

@<TRIPOS>MOLECULE
ASD04220036
  60   62    0    0    0
SMALL
NO_CHARGES


@<TRIPOS>ATOM
   1 C1             0.4253     1.4670     0.3619 C.3     
   2 N2             0.3997     0.0007     0.3288 N.am    
   3 C3             0.9282    -0.6568    -0.8780 C.3     
   4 C4             2.4189    -0.3355    -0.9724 C.3     
   5 C5             2.6650     1.1353    -0.7615 C.ar    
   6 C6             3.8736     1.6602    -1.2178 C.ar    
   7 C7             4.1675     3.0016    -1.0477 C.ar    
   8 C8             3.2574     3.8303    -0.4204 C.ar    
   9 C9             2.0551     3.3129     0.0299 C.ar    
  10 C10            1.7566     1.9633    -0.1437 C.ar    
  11 C11            0.7334    -2.1475    -0.7734 C.2     
  12 O12           -0.1253    -2.6984    -1.4408 O.co2   
  13 O13            1.4346    -2.8026    -0.0212 O.co2   
  14 C14           -0.0873    -0.7156     1.3614 C.2     
  15 C15           -0.5016    -0.0197     2.6323 C.3     
  16 C16           -1.0147    -1.0540     3.6361 C.3     
  17 C17           -1.4354    -0.3475     4.9264 C.3     
  18 O18           -0.1921    -1.9202     1.2678 O.2     
  19 C19           -1.9408    -1.3662     5.9152 C.ar    
  20 C20           -1.0470    -2.0415     6.7334 C.ar    
  21 C21           -1.5121    -2.9786     7.6436 C.ar    
  22 C22           -2.8657    -3.2395     7.7358 C.ar    
  23 C23           -3.7592    -2.5641     6.9182 C.ar    
  24 C24           -3.2943    -1.6235     6.0107 C.ar    
  25 O25            0.2853    -1.7847     6.6426 O.3     
  26 S26            0.7652    -0.6710     7.5623 S.o2    
  27 O27            2.0872    -0.2824     7.0961 O.co2   
  28 O28           -0.1963     0.4142     7.4439 O.co2   
  29 O29            0.8013    -1.2240     8.9073 O.co2   
  30 O30           -5.0915    -2.8211     7.0086 O.3     
  31 S31           -5.8249    -1.9419     8.0113 S.o2    
  32 O32           -7.1169    -2.5661     8.2503 O.co2   
  33 O33           -5.0064    -1.9038     9.2133 O.co2   
  34 O34           -5.9578    -0.6289     7.3995 O.co2   
  35 O35            1.1585     4.1282     0.6469 O.3     
  36 S36            0.1665     4.7870    -0.3009 S.o2    
  37 O37           -0.4626     5.8710     0.4375 O.co2   
  38 O38            0.9323     5.2734    -1.4380 O.co2   
  39 O39           -0.7905     3.7612    -0.6858 O.co2   
  40 O40            4.7715     0.8465    -1.8349 O.3     
  41 S41            4.5934     0.7599    -3.3439 S.o2    
  42 O42            5.3629    -0.3905    -3.7917 O.co2   
  43 O43            3.1693     0.5930    -3.5893 O.co2   
  44 O44            5.1006     2.0054    -3.8983 O.co2   
  45 H45           -0.3716     1.8580    -0.2708 H       
  46 H46            0.2755     1.8094     1.3858 H       
  47 H47            0.4126    -0.2777    -1.7604 H       
  48 H48            2.9565    -0.9016    -0.2118 H       
  49 H49            2.7858    -0.6226    -1.9579 H       
  50 H50            5.1061     3.3996    -1.4042 H       
  51 H51            3.4828     4.8774    -0.2822 H       
  52 H52            0.3555     0.5038     3.0559 H       
  53 H53           -1.2928     0.6971     2.4126 H       
  54 H54           -1.8718    -1.5774     3.2125 H       
  55 H55           -0.2235    -1.7708     3.8558 H       
  56 H56           -0.5783     0.1760     5.3500 H       
  57 H57           -2.2266     0.3693     4.7068 H       
  58 H58           -0.8162    -3.5048     8.2802 H       
  59 H59           -3.2279    -3.9696     8.4445 H       
  60 H60           -3.9906    -1.0948     5.3765 H       
@<TRIPOS>BOND
   1    1    2 1
   2    1   10 1
   3    1   45 1
   4    1   46 1
   5    2    3 1
   6    2   14 am
   7    3    4 1
   8    3   11 1
   9    3   47 1
  10    4    5 1
  11    4   48 1
  12    4   49 1
  13    5    6 ar
  14    5   10 ar
  15    6    7 ar
  16    6   40 1
  17    7    8 ar
  18    7   50 1
  19    8    9 ar
  20    8   51 1
  21    9   10 ar
  22    9   35 1
  23   11   12 ar
  24   11   13 ar
  25   14   15 1
  26   14   18 2
  27   15   16 1
  28   15   52 1
  29   15   53 1
  30   16   17 1
  31   16   54 1
  32   16   55 1
  33   17   19 1
  34   17   56 1
  35   17   57 1
  36   19   20 ar
  37   19   24 ar
  38   20   21 ar
  39   20   25 1
  40   21   22 ar
  41   21   58 1
  42   22   23 ar
  43   22   59 1
  44   23   24 ar
  45   23   30 1
  46   24   60 1
  47   25   26 1
  48   26   27 ar
  49   26   28 ar
  50   26   29 ar
  51   30   31 1
  52   31   32 ar
  53   31   33 ar
  54   31   34 ar
  55   35   36 1
  56   36   37 ar
  57   36   38 ar
  58   36   39 ar
  59   40   41 1
  60   41   42 ar
  61   41   43 ar
  62   41   44 ar

#	End of record

