#	Name: ASD09380018
#	Creating user name:	WinNT
#	Creation time:	15. 06. 2019 21:22

#	Modifying user name:	WinNT
#	Modification time:	15. 06. 2019 21:22

#	Program:	/corina/corina34_cracker 3.40 0067  02.08.2006

@<TRIPOS>MOLECULE
ASD09380018
  62   65    0    0    0
SMALL
NO_CHARGES


@<TRIPOS>ATOM
   1 Na1            0.0000     0.0000     0.0000 Du      
   2 C2            10.9993    17.5602     7.4253 C.2     
   3 C3            11.0198    16.0533     7.4170 C.3     
   4 C4             9.5844    15.5238     7.4279 C.3     
   5 O5            12.0468    18.1841     7.4187 O.co2   
   6 O6             9.9353    18.1554     7.4336 O.co2   
   7 C7            11.7598    15.5465     8.6565 C.3     
   8 C8             8.1544     9.8816     9.3163 C.3     
   9 C9             9.3926     9.1743     8.7506 C.3     
  10 C10            9.6739     9.7393     7.3561 C.3     
  11 C11            9.6391    11.2459     7.4020 C.ar    
  12 C12            9.0427    11.9219     8.4523 C.ar    
  13 O13            8.4670    11.2642     9.4923 O.3     
  14 C14            9.0267    13.3128     8.4563 C.ar    
  15 C15            9.6048    14.0169     7.4196 C.ar    
  16 C16           10.2023    13.3390     6.3733 C.ar    
  17 C17           10.2190    11.9577     6.3655 C.ar    
  18 C18            7.7837     9.2720    10.6438 C.ar    
  19 C19            6.9886     8.1380    10.6848 C.ar    
  20 C20            6.6463     7.5757    11.9003 C.ar    
  21 C21            7.1027     8.1519    13.0840 C.ar    
  22 C22            7.9019     9.2921    13.0355 C.ar    
  23 C23            8.2428     9.8429    11.8164 C.ar    
  24 C24            6.8216     7.5253    16.7872 C.ar    
  25 C25            7.1864     8.1170    15.5868 C.ar    
  26 C26            6.7383     7.5533    14.3919 C.ar    
  27 C27            5.9359     6.4090    14.4593 C.ar    
  28 C28            5.6189     5.8831    15.6932 C.ar    
  29 N29            6.0608     6.4432    16.8040 N.ar    
  30 O30            7.2546     8.0591    17.9571 O.3     
  31 C31            6.8453     7.4046    19.1596 C.3     
  32 F32            6.5470     7.5815     9.5357 F       
  33 C33            8.8444    16.0306     6.1884 C.3     
  34 C34            7.3843    15.6074     6.0150 C.3     
  35 C35            7.7223    17.0485     6.4024 C.3     
  36 H36           11.5300    15.7018     6.5202 H       
  37 H37            9.0742    15.8753     8.3247 H       
  38 H38           11.2496    15.8980     9.5533 H       
  39 H39           11.7746    14.4566     8.6506 H       
  40 H40           12.7824    15.9238     8.6488 H       
  41 H41            7.3225     9.7791     8.6195 H       
  42 H42           10.2487     9.3564     9.4002 H       
  43 H43            9.2043     8.1029     8.6818 H       
  44 H44           10.6578     9.4092     7.0228 H       
  45 H45            8.9163     9.3801     6.6596 H       
  46 H46            8.5599    13.8434     9.2730 H       
  47 H47           10.6557    13.8892     5.5621 H       
  48 H48           10.6862    11.4304     5.5469 H       
  49 H49            6.0263     6.6920    11.9324 H       
  50 H50            8.2579     9.7421    13.9505 H       
  51 H51            8.8663    10.7239    11.7786 H       
  52 H52            7.8074     9.0006    15.5774 H       
  53 H53            5.5695     5.9441    13.5561 H       
  54 H54            5.0000     5.0000    15.7522 H       
  55 H55            5.7571     7.4063    19.2219 H       
  56 H56            7.2074     6.3765    19.1550 H       
  57 H57            7.2592     7.9318    20.0192 H       
  58 H58            9.4498    16.1305     5.2875 H       
  59 H59            7.0291    15.4293     5.0000 H       
  60 H60            6.9510    14.9679     6.7840 H       
  61 H61            7.5113    17.3570     7.4263 H       
  62 H62            7.5895    17.8183     5.6424 H       
@<TRIPOS>BOND
   1    2    3 1
   2    2    5 ar
   3    2    6 ar
   4    3    7 1
   5    3    4 1
   6    3   36 1
   7    4   15 1
   8    4   33 1
   9    4   37 1
  10    7   38 1
  11    7   39 1
  12    7   40 1
  13    8    9 1
  14    8   13 1
  15    8   18 1
  16    8   41 1
  17    9   10 1
  18    9   42 1
  19    9   43 1
  20   10   11 1
  21   10   44 1
  22   10   45 1
  23   11   12 ar
  24   11   17 ar
  25   12   13 1
  26   12   14 ar
  27   14   15 ar
  28   14   46 1
  29   15   16 ar
  30   16   17 ar
  31   16   47 1
  32   17   48 1
  33   18   19 ar
  34   18   23 ar
  35   19   20 ar
  36   19   32 1
  37   20   21 ar
  38   20   49 1
  39   21   22 ar
  40   21   26 1
  41   22   23 ar
  42   22   50 1
  43   23   51 1
  44   24   25 ar
  45   24   29 ar
  46   24   30 1
  47   25   26 ar
  48   25   52 1
  49   26   27 ar
  50   27   28 ar
  51   27   53 1
  52   28   29 ar
  53   28   54 1
  54   30   31 1
  55   31   55 1
  56   31   56 1
  57   31   57 1
  58   33   34 1
  59   33   35 1
  60   33   58 1
  61   34   35 1
  62   34   59 1
  63   34   60 1
  64   35   61 1
  65   35   62 1

#	End of record

