#	Name: ASD03240463
#	Creating user name:	WinNT
#	Creation time:	15. 06. 2019 20:35

#	Modifying user name:	WinNT
#	Modification time:	15. 06. 2019 20:35

#	Program:	/corina/corina34_cracker 3.40 0067  02.08.2006

@<TRIPOS>MOLECULE
ASD03240463
  46   49    0    0    0
SMALL
NO_CHARGES


@<TRIPOS>ATOM
   1 O1            -0.0164     1.3548     0.0095 O.3     
   2 C2             1.9294     3.8501    -1.6811 C.ar    
   3 C3             0.9444     3.3854    -0.8285 C.ar    
   4 C4             1.1798     2.1361    -0.0194 C.3     
   5 C5             1.7189     4.9939    -2.4245 C.ar    
   6 C6             0.5118     5.6805    -2.3149 C.ar    
   7 C7            -0.4767     5.2084    -1.4544 C.ar    
   8 C8            -0.2559     4.0636    -0.7156 C.ar    
   9 C9             0.2800     6.9117    -3.1118 C.2     
  10 C10           -0.8488     7.6779    -3.1017 C.2     
  11 N11           -0.6560     8.6995    -3.9602 N.pl3   
  12 N12            0.6214     8.5672    -4.5179 N.2     
  13 C13            1.1878     7.5043    -4.0109 C.2     
  14 C14            0.1296     0.0040     0.0416 C.ar    
  15 C15           -0.9860    -0.8129     0.1545 C.ar    
  16 C16            1.5730     2.5198     1.4086 C.3     
  17 C17            1.9327     1.2577     2.1951 C.3     
  18 N18            2.3092     1.6251     3.5624 N.pl3   
  19 C19           -0.8350    -2.1857     0.1869 C.ar    
  20 C20            0.4267    -2.7456     0.1069 C.ar    
  21 C21            1.5402    -1.9336    -0.0052 C.ar    
  22 C22            1.3940    -0.5605    -0.0443 C.ar    
  23 C23            1.4789     1.7249     4.6228 C.2     
  24 C24            3.5691     1.9256     4.0050 C.2     
  25 C25            3.4647     2.2034     5.3186 C.2     
  26 N26            2.1766     2.0729     5.6692 N.2     
  27 H27            2.8666     3.3196    -1.7620 H       
  28 H28            1.9824     1.5550    -0.4735 H       
  29 H29            2.4888     5.3561    -3.0897 H       
  30 H30           -1.4143     5.7370    -1.3658 H       
  31 H31           -1.0217     3.6965    -0.0485 H       
  32 H32           -1.7361     7.4986    -2.5127 H       
  33 H33           -1.2926     9.4043    -4.1576 H       
  34 H34            2.1768     7.1397    -4.2459 H       
  35 H35           -1.9717    -0.3760     0.2174 H       
  36 H36            2.4333     3.1885     1.3813 H       
  37 H37            0.7364     3.0236     1.8928 H       
  38 H38            1.0724     0.5890     2.2224 H       
  39 H39            2.7693     0.7539     1.7109 H       
  40 H40           -1.7031    -2.8221     0.2752 H       
  41 H41            0.5427    -3.8191     0.1325 H       
  42 H42            2.5247    -2.3734    -0.0668 H       
  43 H43            2.2640     0.0734    -0.1319 H       
  44 H44            0.4138     1.5466     4.6072 H       
  45 H45            4.4732     1.9376     3.4144 H       
  46 H46            4.2762     2.4802     5.9752 H       
@<TRIPOS>BOND
   1    1   14 1
   2    1    4 1
   3    2    3 ar
   4    2    5 ar
   5    2   27 1
   6    3    4 1
   7    3    8 ar
   8    4   16 1
   9    4   28 1
  10    5    6 ar
  11    5   29 1
  12    6    7 ar
  13    6    9 1
  14    7    8 ar
  15    7   30 1
  16    8   31 1
  17    9   10 2
  18    9   13 1
  19   10   11 1
  20   10   32 1
  21   11   12 1
  22   11   33 1
  23   12   13 2
  24   13   34 1
  25   14   15 ar
  26   14   22 ar
  27   15   19 ar
  28   15   35 1
  29   16   17 1
  30   16   36 1
  31   16   37 1
  32   17   18 1
  33   17   38 1
  34   17   39 1
  35   18   23 1
  36   18   24 1
  37   19   20 ar
  38   19   40 1
  39   20   21 ar
  40   20   41 1
  41   21   22 ar
  42   21   42 1
  43   22   43 1
  44   23   26 2
  45   23   44 1
  46   24   25 2
  47   24   45 1
  48   25   26 1
  49   25   46 1

#	End of record

