#	Name: ASD02408420
#	Creating user name:	WinNT
#	Creation time:	15. 06. 2019 20:21

#	Modifying user name:	WinNT
#	Modification time:	15. 06. 2019 20:21

#	Program:	/corina/corina34_cracker 3.40 0067  02.08.2006

@<TRIPOS>MOLECULE
ASD02408420
  38   41    0    0    0
SMALL
NO_CHARGES


@<TRIPOS>ATOM
   1 N1            -0.1710     1.1831     0.4416 N.am    
   2 C2            -0.1490    -0.1605     0.2526 C.2     
   3 N3             0.9018    -0.8003    -0.1703 N.2     
   4 C4             2.0509    -0.1675    -0.4523 C.2     
   5 C5             2.1242     1.2249    -0.2872 C.2     
   6 C6             0.9321     1.9260     0.1891 C.2     
   7 N7             3.2721    -0.5702    -0.8983 N.pl3   
   8 N8             4.0934     0.5590    -1.0087 N.2     
   9 C9             3.4250     1.6210    -0.6506 C.2     
  10 C10           -1.3998    -0.9480     0.5467 C.3     
  11 C11           -1.1068    -2.4428     0.4032 C.3     
  12 C12            3.6439    -1.8879    -1.1952 C.ar    
  13 C13            2.8182    -2.6844    -1.9766 C.ar    
  14 C14            3.1878    -3.9833    -2.2681 C.ar    
  15 C15            4.3788    -4.4907    -1.7827 C.ar    
  16 C16            5.2044    -3.7004    -1.0039 C.ar    
  17 C17            4.8433    -2.3987    -0.7129 C.ar    
  18 O18            0.9318     3.1333     0.3523 O.2     
  19 C19           -0.1268    -2.8912     1.4624 C.2     
  20 C20           -0.5056    -4.0150     2.0076 C.2     
  21 C21           -1.8013    -4.5035     1.4029 C.3     
  22 C22           -2.3845    -3.2706     0.6742 C.3     
  23 Cl23           5.8797    -1.4070     0.2649 Cl      
  24 H24           -0.9818     1.6135     0.7550 H       
  25 H25            3.8050     2.6319    -0.6363 H       
  26 H26           -1.7302    -0.7385     1.5641 H       
  27 H27           -2.1827    -0.6622    -0.1557 H       
  28 H28           -0.7162    -2.6587    -0.5912 H       
  29 H29            1.8874    -2.2893    -2.3560 H       
  30 H30            2.5453    -4.6033    -2.8757 H       
  31 H31            4.6649    -5.5065    -2.0120 H       
  32 H32            6.1339    -4.0998    -0.6259 H       
  33 H33            0.7695    -2.3526     1.7326 H       
  34 H34            0.0362    -4.5285     2.7881 H       
  35 H35           -1.6095    -5.3084     0.6934 H       
  36 H36           -2.4822    -4.8397     2.1849 H       
  37 H37           -3.0745    -2.7256     1.3183 H       
  38 H38           -2.8683    -3.5601    -0.2586 H       
@<TRIPOS>BOND
   1    1    2 1
   2    1    6 am
   3    1   24 1
   4    2    3 2
   5    2   10 1
   6    3    4 1
   7    4    5 2
   8    4    7 1
   9    5    6 1
  10    5    9 1
  11    6   18 2
  12    7    8 1
  13    7   12 1
  14    8    9 2
  15    9   25 1
  16   10   11 1
  17   10   26 1
  18   10   27 1
  19   11   19 1
  20   11   22 1
  21   11   28 1
  22   12   13 ar
  23   12   17 ar
  24   13   14 ar
  25   13   29 1
  26   14   15 ar
  27   14   30 1
  28   15   16 ar
  29   15   31 1
  30   16   17 ar
  31   16   32 1
  32   17   23 1
  33   19   20 2
  34   19   33 1
  35   20   21 1
  36   20   34 1
  37   21   22 1
  38   21   35 1
  39   21   36 1
  40   22   37 1
  41   22   38 1

#	End of record

