#	Name: ASD02580032
#	Creating user name:	WinNT
#	Creation time:	15. 06. 2019 20:25

#	Modifying user name:	WinNT
#	Modification time:	15. 06. 2019 20:25

#	Program:	/corina/corina34_cracker 3.40 0067  02.08.2006

@<TRIPOS>MOLECULE
ASD02580032
  49   51    0    0    0
SMALL
NO_CHARGES


@<TRIPOS>ATOM
   1 C1            -0.0161     1.3382     0.0094 C.2     
   2 C2             0.0021    -0.0041     0.0020 C.2     
   3 C3             1.3788     1.7854    -0.0015 C.ar    
   4 C4             2.1615     0.6167    -0.0153 C.ar    
   5 C5             1.9965     3.0377    -0.0011 C.ar    
   6 N6             1.2946    -0.4529    -0.0127 N.pl3   
   7 C7             3.5485     0.7255    -0.0279 C.ar    
   8 C8             3.3601     3.1213    -0.0141 C.ar    
   9 C9             4.1371     1.9708    -0.0269 C.ar    
  10 P10           -0.1834    -6.2955     2.8965 P.3     
  11 P11           -2.3254    -7.1665     4.7509 P.3     
  12 P12           -5.2005    -7.4886     5.3954 P.3     
  13 C13            0.8805    -5.0839     0.7657 C.3     
  14 O14           -0.1671    -5.1833     1.7325 O.3     
  15 C15            0.5850    -3.9254    -0.1891 C.3     
  16 O16            0.6502    -2.6826     0.5200 O.3     
  17 C17            1.6506    -3.8820    -1.3054 C.3     
  18 O18            1.1479    -4.4613    -2.5111 O.3     
  19 C19            1.8829    -2.3564    -1.4801 C.3     
  20 C20            1.6961    -1.8618    -0.0237 C.3     
  21 O21           -0.0625    -7.6419     2.2941 O.2     
  22 O22           -2.1996    -8.5691     4.2956 O.2     
  23 O23           -5.1486    -8.9322     5.0731 O.2     
  24 O24            1.0517    -6.0426     3.8977 O.3     
  25 O25           -1.6640    -7.0149     6.2110 O.3     
  26 O26           -5.2670    -7.2974     6.9926 O.3     
  27 O27           -1.5665    -6.1958     3.7146 O.3     
  28 O28           -3.8823    -6.7631     4.8224 O.3     
  29 O29           -6.5085    -6.8350     4.7217 O.3     
  30 N30            4.0143     4.4491    -0.0136 N.pl3   
  31 O31            3.3373     5.4615    -0.0017 O.2     
  32 O32            5.2296     4.5292    -0.0251 O.2     
  33 H33           -0.8929     1.9687     0.0172 H       
  34 H34           -0.8737    -0.6360     0.0075 H       
  35 H35            1.3985     3.9369     0.0091 H       
  36 H36            4.1616    -0.1636    -0.0382 H       
  37 H37            5.2139     2.0531    -0.0367 H       
  38 H38            1.8278    -4.9034     1.2737 H       
  39 H39            0.9427    -6.0138     0.2004 H       
  40 H40           -0.4056    -4.0502    -0.6264 H       
  41 H41            2.5652    -4.3831    -0.9883 H       
  42 H42            1.7803    -4.4578    -3.2426 H       
  43 H43            2.8917    -2.1512    -1.8384 H       
  44 H44            1.1362    -1.9187    -2.1425 H       
  45 H45            2.6167    -1.9966     0.5442 H       
  46 H46            1.0373    -5.1774     4.3295 H       
  47 H47           -1.7104    -6.1193     6.5726 H       
  48 H48           -5.3032    -6.3739     7.2770 H       
  49 H49           -7.3415    -7.2244     5.0212 H       
@<TRIPOS>BOND
   1    1    2 2
   2    1    3 1
   3    1   33 1
   4    2    6 1
   5    2   34 1
   6    3    4 ar
   7    3    5 ar
   8    4    6 1
   9    4    7 ar
  10    5    8 ar
  11    5   35 1
  12    6   20 1
  13    7    9 ar
  14    7   36 1
  15    8    9 ar
  16    8   30 1
  17    9   37 1
  18   10   14 1
  19   10   21 2
  20   10   24 1
  21   10   27 1
  22   11   22 2
  23   11   25 1
  24   11   27 1
  25   11   28 1
  26   12   23 2
  27   12   26 1
  28   12   28 1
  29   12   29 1
  30   13   14 1
  31   13   15 1
  32   13   38 1
  33   13   39 1
  34   15   16 1
  35   15   17 1
  36   15   40 1
  37   16   20 1
  38   17   18 1
  39   17   19 1
  40   17   41 1
  41   18   42 1
  42   19   20 1
  43   19   43 1
  44   19   44 1
  45   20   45 1
  46   24   46 1
  47   25   47 1
  48   26   48 1
  49   29   49 1
  50   30   31 2
  51   30   32 2

#	End of record

