#	Name: ASD07300796
#	Creating user name:	WinNT
#	Creation time:	15. 06. 2019 21:10

#	Modifying user name:	WinNT
#	Modification time:	15. 06. 2019 21:10

#	Program:	/corina/corina34_cracker 3.40 0067  02.08.2006

@<TRIPOS>MOLECULE
ASD07300796
  43   46    0    0    0
SMALL
NO_CHARGES


@<TRIPOS>ATOM
   1 C1            -0.0172     1.4143     0.0098 C.2     
   2 C2             0.0021    -0.0041     0.0020 C.2     
   3 N3             1.1804     2.0894     0.0020 N.pl3   
   4 N4             1.1599    -0.6390    -0.0124 N.2     
   5 C5             2.3152     0.0269    -0.0199 C.2     
   6 C6             2.3489     1.3773    -0.0130 C.2     
   7 N7            -0.9936     2.3045     0.0292 N.2     
   8 C8            -0.4750     3.5310     0.0279 C.2     
   9 C9             0.8877     3.4248     0.0120 C.2     
  10 C10           -2.4936    -0.1033     0.0263 C.ar    
  11 C11           -1.2670    -0.7673     0.0105 C.ar    
  12 C12           -1.2556    -2.1660     0.0024 C.ar    
  13 C13           -2.4689    -2.8321     0.0105 C.ar    
  14 C14           -3.6425    -2.1007     0.0261 C.ar    
  15 N15           -3.6224    -0.7815     0.0334 N.ar    
  16 C16           -1.2580     4.8185     0.0465 C.3     
  17 N17            2.8681     6.4289    -0.4626 N.pl3   
  18 N18            3.6170     5.7647     0.5163 N.2     
  19 C19            3.0212     4.6375     0.8026 C.2     
  20 C20            1.8600     4.5415     0.0091 C.2     
  21 C21            1.7951     5.6668    -0.7626 C.2     
  22 C22            3.1902     7.7297    -1.0546 C.3     
  23 C23            3.3549     8.7689     0.0561 C.3     
  24 O24            3.6690    10.0377    -0.5214 O.3     
  25 C25            3.8445    11.0844     0.4355 C.3     
  26 H26            3.2435    -0.5250    -0.0317 H       
  27 H27            3.2970     1.8945    -0.0196 H       
  28 H28           -2.5178     0.9764     0.0372 H       
  29 H29           -0.3240    -2.7122    -0.0101 H       
  30 H30           -2.4988    -3.9117     0.0043 H       
  31 H31           -4.5907    -2.6176     0.0324 H       
  32 H32           -1.4310     5.1237     1.0785 H       
  33 H33           -0.6944     5.5941    -0.4722 H       
  34 H34           -2.2150     4.6690    -0.4535 H       
  35 H35            3.3598     3.9064     1.5219 H       
  36 H36            1.0250     5.9039    -1.4816 H       
  37 H37            4.1189     7.6517    -1.6199 H       
  38 H38            2.3836     8.0351    -1.7212 H       
  39 H39            2.4262     8.8469     0.6214 H       
  40 H40            4.1614     8.4634     0.7227 H       
  41 H41            4.0802    12.0142    -0.0822 H       
  42 H42            2.9259    11.2104     1.0086 H       
  43 H43            4.6611    10.8270     1.1100 H       
@<TRIPOS>BOND
   1    1    2 1
   2    1    3 1
   3    1    7 2
   4    2    4 2
   5    2   11 1
   6    3    6 1
   7    3    9 1
   8    4    5 1
   9    5    6 2
  10    5   26 1
  11    6   27 1
  12    7    8 1
  13    8    9 2
  14    8   16 1
  15    9   20 1
  16   10   11 ar
  17   10   15 ar
  18   10   28 1
  19   11   12 ar
  20   12   13 ar
  21   12   29 1
  22   13   14 ar
  23   13   30 1
  24   14   15 ar
  25   14   31 1
  26   16   32 1
  27   16   33 1
  28   16   34 1
  29   17   18 1
  30   17   21 1
  31   17   22 1
  32   18   19 2
  33   19   20 1
  34   19   35 1
  35   20   21 2
  36   21   36 1
  37   22   23 1
  38   22   37 1
  39   22   38 1
  40   23   24 1
  41   23   39 1
  42   23   40 1
  43   24   25 1
  44   25   41 1
  45   25   42 1
  46   25   43 1

#	End of record

