#	Name: ASD01884193
#	Creating user name:	WinNT
#	Creation time:	15. 06. 2019 19:47

#	Modifying user name:	WinNT
#	Modification time:	15. 06. 2019 19:47

#	Program:	/corina/corina34_cracker 3.40 0067  02.08.2006

@<TRIPOS>MOLECULE
ASD01884193
  35   38    0    0    0
SMALL
NO_CHARGES


@<TRIPOS>ATOM
   1 S1            -0.0219     1.7672     0.0118 S.3     
   2 C2             0.0021    -0.0041     0.0020 C.2     
   3 N3             1.2907    -0.3576    -0.0122 N.am    
   4 C4             2.2515     0.6352    -0.0160 C.ar    
   5 C5             1.7392     1.9353    -0.0042 C.ar    
   6 C6             2.5665     3.0401    -0.0068 C.ar    
   7 C7             3.9505     2.8697    -0.0216 C.ar    
   8 C8             4.4769     1.5763    -0.0336 C.ar    
   9 C9             3.6481     0.4829    -0.0306 C.ar    
  10 O10           -0.9607    -0.7487     0.0076 O.2     
  11 C11            4.8505     4.0455    -0.0251 C.ar    
  12 C12            4.6671     5.0888    -0.9358 C.ar    
  13 C13            5.5275     6.1666    -0.9055 C.ar    
  14 N14            6.5179     6.2282    -0.0340 N.ar    
  15 C15            6.7376     5.2744     0.8466 C.ar    
  16 C16            5.9156     4.1480     0.8955 C.ar    
  17 C17            1.6771    -1.7707    -0.0230 C.3     
  18 C18            1.7983    -2.2552    -1.4692 C.3     
  19 C19            2.3088    -3.6795    -1.6966 C.3     
  20 C20            0.8334    -3.3491    -1.9309 C.3     
  21 F21            3.1065    -3.9077    -2.8230 F       
  22 F22            2.6290    -4.4391    -0.5662 F       
  23 C23            6.1515     3.1134     1.8571 C.1     
  24 N24            6.3385     2.2927     2.6200 N.1     
  25 H25            2.1432     4.0336     0.0022 H       
  26 H26            5.5476     1.4353    -0.0455 H       
  27 H27            4.0754    -0.5089    -0.0397 H       
  28 H28            3.8620     5.0519    -1.6547 H       
  29 H29            5.3888     6.9751    -1.6080 H       
  30 H30            7.5598     5.3668     1.5407 H       
  31 H31            2.6361    -1.8889     0.4814 H       
  32 H32            0.9193    -2.3586     0.4949 H       
  33 H33            2.0843    -1.4959    -2.1970 H       
  34 H34            0.1122    -3.7235    -1.2044 H       
  35 H35            0.4843    -3.3095    -2.9627 H       
@<TRIPOS>BOND
   1    1    2 1
   2    1    5 1
   3    2    3 am
   4    2   10 2
   5    3    4 1
   6    3   17 1
   7    4    5 ar
   8    4    9 ar
   9    5    6 ar
  10    6    7 ar
  11    6   25 1
  12    7    8 ar
  13    7   11 1
  14    8    9 ar
  15    8   26 1
  16    9   27 1
  17   11   12 ar
  18   11   16 ar
  19   12   13 ar
  20   12   28 1
  21   13   14 ar
  22   13   29 1
  23   14   15 ar
  24   15   16 ar
  25   15   30 1
  26   16   23 1
  27   17   18 1
  28   17   31 1
  29   17   32 1
  30   18   19 1
  31   18   20 1
  32   18   33 1
  33   19   20 1
  34   19   21 1
  35   19   22 1
  36   20   34 1
  37   20   35 1
  38   23   24 3

#	End of record

