#	Name: ASD04910512
#	Creating user name:	WinNT
#	Creation time:	15. 06. 2019 20:56

#	Modifying user name:	WinNT
#	Modification time:	15. 06. 2019 20:56

#	Program:	/corina/corina34_cracker 3.40 0067  02.08.2006

@<TRIPOS>MOLECULE
ASD04910512
  58   60    0    0    0
SMALL
NO_CHARGES


@<TRIPOS>ATOM
   1 C1            -0.0166     1.3754     0.0096 C.ar    
   2 C2             0.0021    -0.0041     0.0020 C.ar    
   3 C3             1.2078    -0.6825    -0.0131 C.ar    
   4 C4             2.4019     0.0164    -0.0208 C.ar    
   5 C5             2.3972     1.3959    -0.0129 C.ar    
   6 C6             1.1843     2.0865     0.0020 C.ar    
   7 C7             1.1718     3.5649     0.0100 C.2     
   8 O8             2.2193     4.1816     0.0037 O.2     
   9 N9            -0.0010     4.2288     0.0243 N.am    
  10 C10           -0.0134     5.6937     0.0323 C.3     
  11 C11           -1.4601     6.1914     0.0483 C.3     
  12 C12           -1.4729     7.6983     0.0565 C.2     
  13 O13           -2.6409     8.3595     0.0707 O.3     
  14 O14           -0.4317     8.3114     0.0502 O.2     
  15 C15            1.2206    -2.1895    -0.0209 C.3     
  16 C16            1.4615    -2.6901    -1.4464 C.3     
  17 N17            2.2913    -2.6732     0.8542 N.pl3   
  18 C18            1.3507    -4.2158    -1.4766 C.3     
  19 C19            1.5917    -4.7165    -2.9022 C.3     
  20 F20            2.8703    -4.3334    -3.3211 F       
  21 F21            1.4904    -6.1116    -2.9298 F       
  22 F22            0.6347    -4.1624    -3.7591 F       
  23 C23            2.2035    -3.9449     1.4293 C.ar    
  24 C24            1.1058    -4.7560     1.1771 C.ar    
  25 C25            3.2198    -4.4163     2.2585 C.ar    
  26 C26            3.0905    -5.6805     2.8050 C.ar    
  27 C27            1.9600    -6.4332     2.5114 C.ar    
  28 N28            1.0168    -5.9562     1.7162 N.ar    
  29 N29            1.8201    -7.7133     3.0596 N.pl3   
  30 C30            0.7757    -8.5585     2.8622 C.2     
  31 C31            1.0245    -9.6880     3.5645 C.2     
  32 C32            2.2556    -9.5320     4.2109 C.2     
  33 N33            2.7354    -8.3538     3.9050 N.2     
  34 C34            0.1323   -10.9003     3.6382 C.3     
  35 F35            0.4705   -11.7912     2.6139 F       
  36 F36            0.3003   -11.5284     4.8769 F       
  37 F37           -1.2023   -10.5067     3.4921 F       
  38 H38           -0.9585     1.9038     0.0169 H       
  39 H39           -0.9265    -0.5556     0.0083 H       
  40 H40            3.3396    -0.5192    -0.0326 H       
  41 H41            3.3299     1.9403    -0.0181 H       
  42 H42           -0.8369     3.7367     0.0294 H       
  43 H43            0.5055     6.0567     0.9195 H       
  44 H44            0.4891     6.0662    -0.8603 H       
  45 H45           -1.9790     5.8285    -0.8390 H       
  46 H46           -1.9627     5.8189     0.9409 H       
  47 H47           -2.5985     9.3256     0.0755 H       
  48 H48            0.2615    -2.5628     0.3381 H       
  49 H49            0.7159    -2.2584    -2.1140 H       
  50 H50            2.4578    -2.3917    -1.7728 H       
  51 H51            3.0613    -2.1115     1.0346 H       
  52 H52            2.0964    -4.6476    -0.8090 H       
  53 H53            0.3545    -4.5143    -1.1502 H       
  54 H54            0.3157    -4.4002     0.5325 H       
  55 H55            4.0879    -3.8092     2.4691 H       
  56 H56            3.8589    -6.0778     3.4516 H       
  57 H57           -0.0960    -8.3642     2.2548 H       
  58 H58            2.7310   -10.2617     4.8496 H       
@<TRIPOS>BOND
   1    1    2 ar
   2    1    6 ar
   3    1   38 1
   4    2    3 ar
   5    2   39 1
   6    3    4 ar
   7    3   15 1
   8    4    5 ar
   9    4   40 1
  10    5    6 ar
  11    5   41 1
  12    6    7 1
  13    7    8 2
  14    7    9 am
  15    9   10 1
  16    9   42 1
  17   10   11 1
  18   10   43 1
  19   10   44 1
  20   11   12 1
  21   11   45 1
  22   11   46 1
  23   12   13 1
  24   12   14 2
  25   13   47 1
  26   15   16 1
  27   15   17 1
  28   15   48 1
  29   16   18 1
  30   16   49 1
  31   16   50 1
  32   17   23 1
  33   17   51 1
  34   18   19 1
  35   18   52 1
  36   18   53 1
  37   19   20 1
  38   19   21 1
  39   19   22 1
  40   23   24 ar
  41   23   25 ar
  42   24   28 ar
  43   24   54 1
  44   25   26 ar
  45   25   55 1
  46   26   27 ar
  47   26   56 1
  48   27   28 ar
  49   27   29 1
  50   29   30 1
  51   29   33 1
  52   30   31 2
  53   30   57 1
  54   31   32 1
  55   31   34 1
  56   32   33 2
  57   32   58 1
  58   34   35 1
  59   34   36 1
  60   34   37 1

#	End of record

