#	Name: ASD01209399
#	Creating user name:	WinNT
#	Creation time:	15. 06. 2019 19:11

#	Modifying user name:	WinNT
#	Modification time:	15. 06. 2019 19:11

#	Program:	/corina/corina34_cracker 3.40 0067  02.08.2006

@<TRIPOS>MOLECULE
ASD01209399
  55   57    0    0    0
SMALL
NO_CHARGES


@<TRIPOS>ATOM
   1 C1            -0.2360     0.7700     2.8952 C.2     
   2 C2            -0.2637    -0.4883     2.0664 C.3     
   3 O3             0.4484     1.7094     2.5488 O.2     
   4 N4            -0.9761     0.8535     4.0185 N.am    
   5 C5            -0.8716     1.9746     4.8404 C.ar    
   6 C6            -1.7236     2.1113     5.9306 C.ar    
   7 C7            -1.6092     3.2290     6.7381 C.ar    
   8 C8            -0.6424     4.1754     6.4261 C.ar    
   9 C9             0.1700     3.9750     5.3278 C.ar    
  10 N10            0.0413     2.8965     4.5789 N.ar    
  11 S11            0.8190    -0.2885     0.6298 Du      
  12 N12            1.3334    -2.7617     1.5711 N.am    
  13 C13            0.8150    -2.0808     0.3774 C.3     
  14 C14           -0.6006    -2.5790     0.2006 C.2     
  15 C15           -0.8364    -3.4386     1.1867 C.2     
  16 C16            0.3524    -3.5571     2.0372 C.2     
  17 O17            0.4393    -4.2695     3.0190 O.2     
  18 C18           -2.1309    -4.1804     1.3985 C.3     
  19 C19           -1.5629    -2.1771    -0.8872 C.3     
  20 C20            1.9018    -0.0886    -0.8068 C.3     
  21 C21            2.2055     1.3738    -1.0074 C.ar    
  22 C22            3.3041     1.9425    -0.3905 C.ar    
  23 C23            3.5826     3.2839    -0.5744 C.ar    
  24 C24            2.7628     4.0566    -1.3756 C.ar    
  25 C25            1.6647     3.4876    -1.9932 C.ar    
  26 C26            1.3887     2.1452    -1.8127 C.ar    
  27 C27            3.0659     5.5192    -1.5754 C.3     
  28 C28            3.9821     5.6891    -2.7889 C.3     
  29 H29            0.0831    -1.3279     2.6688 H       
  30 H30           -1.2827    -0.6792     1.7296 H       
  31 H31           -1.5814     0.1334     4.2551 H       
  32 H32           -2.4650     1.3555     6.1440 H       
  33 H33           -2.2574     3.3624     7.5916 H       
  34 H34           -0.5273     5.0592     7.0359 H       
  35 H35            0.9232     4.7086     5.0810 H       
  36 H36           -0.1579     0.5137     0.0051 H       
  37 H37            2.2202    -2.6602     1.9509 H       
  38 H38            1.4171    -2.3387    -0.4938 H       
  39 H39           -2.0985    -5.1284     0.8615 H       
  40 H40           -2.2709    -4.3703     2.4626 H       
  41 H41           -2.9596    -3.5792     1.0245 H       
  42 H42           -1.8982    -3.0656    -1.4222 H       
  43 H43           -2.4222    -1.6736    -0.4444 H       
  44 H44           -1.0642    -1.5013    -1.5820 H       
  45 H45            2.8312    -0.6331    -0.6398 H       
  46 H46            1.4048    -0.4815    -1.6938 H       
  47 H47            3.9446     1.3389     0.2354 H       
  48 H48            4.4406     3.7284    -0.0919 H       
  49 H49            1.0241     4.0914    -2.6189 H       
  50 H50            0.5329     1.6999    -2.2982 H       
  51 H51            2.1364     6.0633    -1.7428 H       
  52 H52            3.5620     5.9120    -0.6878 H       
  53 H53            4.9116     5.1450    -2.6215 H       
  54 H54            3.4860     5.2963    -3.6765 H       
  55 H55            4.2013     6.7470    -2.9334 H       
@<TRIPOS>BOND
   1    1    2 1
   2    1    3 2
   3    1    4 am
   4    2   11 1
   5    2   29 1
   6    2   30 1
   7    4    5 1
   8    4   31 1
   9    5    6 ar
  10    5   10 ar
  11    6    7 ar
  12    6   32 1
  13    7    8 ar
  14    7   33 1
  15    8    9 ar
  16    8   34 1
  17    9   10 ar
  18    9   35 1
  19   11   13 1
  20   11   20 1
  21   11   36 1
  22   12   13 1
  23   12   16 am
  24   12   37 1
  25   13   14 1
  26   13   38 1
  27   14   15 2
  28   14   19 1
  29   15   16 1
  30   15   18 1
  31   16   17 2
  32   18   39 1
  33   18   40 1
  34   18   41 1
  35   19   42 1
  36   19   43 1
  37   19   44 1
  38   20   21 1
  39   20   45 1
  40   20   46 1
  41   21   22 ar
  42   21   26 ar
  43   22   23 ar
  44   22   47 1
  45   23   24 ar
  46   23   48 1
  47   24   25 ar
  48   24   27 1
  49   25   26 ar
  50   25   49 1
  51   26   50 1
  52   27   28 1
  53   27   51 1
  54   27   52 1
  55   28   53 1
  56   28   54 1
  57   28   55 1

#	End of record

