#	Name: ASD02030011
#	Creating user name:	WinNT
#	Creation time:	15. 06. 2019 20:14

#	Modifying user name:	WinNT
#	Modification time:	15. 06. 2019 20:14

#	Program:	/corina/corina34_cracker 3.40 0067  02.08.2006

@<TRIPOS>MOLECULE
ASD02030011
  62   64    0    0    0
SMALL
NO_CHARGES


@<TRIPOS>ATOM
   1 C1             0.1888     1.0164     1.7824 C.ar    
   2 C2             0.1832    -0.3630     1.6638 C.ar    
   3 C3            -1.0166    -1.0412     1.5437 C.ar    
   4 C4            -2.2087    -0.3419     1.5422 C.ar    
   5 C5            -2.2030     1.0357     1.6602 C.ar    
   6 C6            -1.0057     1.7144     1.7865 C.ar    
   7 Cl7            1.6934     1.8690     1.9332 Cl      
   8 Cl8            1.6808    -1.2409     1.6652 Cl      
   9 C9            -3.5153    -1.0812     1.4113 C.3     
  10 C10           -3.9883    -1.5297     2.7955 C.3     
  11 N11           -5.3220    -2.1356     2.6846 N.3     
  12 C12           -5.2552    -3.4339     2.0006 C.3     
  13 C13           -5.9514    -2.2682     4.0053 C.3     
  14 C14           -7.4152    -2.6788     3.8337 C.3     
  15 C15           -8.0696    -2.8212     5.2094 C.3     
  16 O16           -9.4010    -3.3165     5.0546 O.3     
  17 O17           -8.1048    -1.6802     3.0793 O.3     
  18 C18          -10.1269    -3.5016     6.1898 C.ar    
  19 C19          -11.4264    -3.9801     6.1112 C.ar    
  20 C20          -12.1640    -4.1688     7.2635 C.ar    
  21 C21          -11.6042    -3.8793     8.5009 C.ar    
  22 C22          -10.3032    -3.4003     8.5786 C.ar    
  23 C23           -9.5652    -3.2173     7.4256 C.ar    
  24 N24          -12.3511    -4.0697     9.6689 N.am    
  25 C25           -4.4869    -4.4115     2.8522 C.ar    
  26 C26           -5.1619    -5.2687     3.7001 C.ar    
  27 C27           -4.4572    -6.1654     4.4819 C.ar    
  28 C28           -3.0771    -6.2053     4.4164 C.ar    
  29 C29           -2.3999    -5.3491     3.5687 C.ar    
  30 C30           -3.1046    -4.4548     2.7812 C.ar    
  31 S31          -13.0024    -2.7670    10.4569 S.o2    
  32 C32          -14.1799    -2.0626     9.2703 C.3     
  33 O33          -13.6893    -3.3345    11.5638 O.2     
  34 O34          -11.9026    -1.8881    10.6495 O.2     
  35 F35           -2.4438    -3.6177     1.9520 F       
  36 H36           -1.0217    -2.1172     1.4508 H       
  37 H37           -3.1351     1.5813     1.6585 H       
  38 H38           -1.0020     2.7904     1.8787 H       
  39 H39           -4.2624    -0.4229     0.9677 H       
  40 H40           -3.3764    -1.9545     0.7741 H       
  41 H41           -3.2890    -2.2621     3.1988 H       
  42 H42           -4.0352    -0.6674     3.4606 H       
  43 H43           -6.2648    -3.8104     1.8363 H       
  44 H44           -4.7517    -3.3138     1.0414 H       
  45 H45           -5.4262    -3.0284     4.5835 H       
  46 H46           -5.9009    -1.3137     4.5293 H       
  47 H47           -7.4659    -3.6317     3.3070 H       
  48 H48           -7.4912    -3.5174     5.8166 H       
  49 H49           -8.0987    -1.8484     5.7003 H       
  50 H50           -8.1004    -0.8045     3.4893 H       
  51 H51          -11.8616    -4.2048     5.1487 H       
  52 H52          -13.1759    -4.5410     7.2022 H       
  53 H53           -9.8671    -3.1749     9.5406 H       
  54 H54           -8.5531    -2.8451     7.4859 H       
  55 H55          -12.4872    -4.9649    10.0170 H       
  56 H56           -6.2402    -5.2382     3.7524 H       
  57 H57           -4.9856    -6.8348     5.1446 H       
  58 H58           -2.5277    -6.9056     5.0281 H       
  59 H59           -1.3215    -5.3802     3.5180 H       
  60 H60          -14.9836    -2.7762     9.0887 H       
  61 H61          -14.5971    -1.1409     9.6759 H       
  62 H62          -13.6665    -1.8474     8.3331 H       
@<TRIPOS>BOND
   1    1    2 ar
   2    1    7 1
   3    1    6 ar
   4    2    3 ar
   5    2    8 1
   6    3    4 ar
   7    3   36 1
   8    4    5 ar
   9    4    9 1
  10    5    6 ar
  11    5   37 1
  12    6   38 1
  13    9   10 1
  14    9   39 1
  15    9   40 1
  16   10   11 1
  17   10   41 1
  18   10   42 1
  19   11   12 1
  20   11   13 1
  21   12   25 1
  22   12   43 1
  23   12   44 1
  24   13   14 1
  25   13   45 1
  26   13   46 1
  27   14   15 1
  28   14   17 1
  29   14   47 1
  30   15   16 1
  31   15   48 1
  32   15   49 1
  33   16   18 1
  34   17   50 1
  35   18   19 ar
  36   18   23 ar
  37   19   20 ar
  38   19   51 1
  39   20   21 ar
  40   20   52 1
  41   21   22 ar
  42   21   24 1
  43   22   23 ar
  44   22   53 1
  45   23   54 1
  46   24   31 am
  47   24   55 1
  48   25   26 ar
  49   25   30 ar
  50   26   27 ar
  51   26   56 1
  52   27   28 ar
  53   27   57 1
  54   28   29 ar
  55   28   58 1
  56   29   30 ar
  57   29   59 1
  58   30   35 1
  59   31   32 1
  60   31   33 2
  61   31   34 2
  62   32   60 1
  63   32   61 1
  64   32   62 1

#	End of record

