#	Name: ASD01230804
#	Creating user name:	WinNT
#	Creation time:	15. 06. 2019 19:15

#	Modifying user name:	WinNT
#	Modification time:	15. 06. 2019 19:15

#	Program:	/corina/corina34_cracker 3.40 0067  02.08.2006

@<TRIPOS>MOLECULE
ASD01230804
  37   40    0    0    0
SMALL
NO_CHARGES


@<TRIPOS>ATOM
   1 C1            -0.0166     1.3735     0.0096 C.2     
   2 C2             0.0021    -0.0041     0.0020 C.2     
   3 C3            -1.2146    -0.7003     0.0083 C.2     
   4 C4            -2.3849    -0.0394     0.0110 C.2     
   5 N5            -2.4622     1.3311     0.0013 N.pl3   
   6 C6            -1.3173     2.0756     0.0320 C.2     
   7 C7            -3.8097     1.9044    -0.0487 C.3     
   8 C8            -3.8778     3.1902     0.7804 C.3     
   9 S9            -2.6218     4.3261     0.1120 S.o2    
  10 N10           -1.2617     3.3846     0.0816 N.am    
  11 C11            1.2500     2.1409     0.0016 C.ar    
  12 O12           -2.8869     4.6252    -1.2516 O.2     
  13 O13           -2.3207     5.3522     1.0479 O.2     
  14 C14            2.0966     2.0712    -1.0978 C.ar    
  15 C15            3.2864     2.7992    -1.0929 C.ar    
  16 C16            3.6195     3.5949     0.0191 C.ar    
  17 C17            2.7561     3.6494     1.1101 C.ar    
  18 C18            1.5903     2.9404     1.0997 C.ar    
  19 C19            4.3845     2.9595    -2.0498 C.2     
  20 C20            5.2715     3.7981    -1.4917 C.2     
  21 N21            4.8320     4.1881    -0.2561 N.pl3   
  22 C22            5.5448     5.1010     0.6409 C.3     
  23 H23            0.9399    -0.5395    -0.0090 H       
  24 H24           -1.2115    -1.7803     0.0107 H       
  25 H25           -3.3019    -0.6099     0.0207 H       
  26 H26           -4.0663     2.1300    -1.0838 H       
  27 H27           -4.5228     1.1821     0.3487 H       
  28 H28           -4.8679     3.6374     0.6917 H       
  29 H29           -3.6610     2.9701     1.8257 H       
  30 H30            1.8361     1.4587    -1.9483 H       
  31 H31            3.0080     4.2584     1.9658 H       
  32 H32            0.9274     2.9893     1.9509 H       
  33 H33            4.4648     2.4917    -3.0199 H       
  34 H34            6.1959     4.1173    -1.9499 H       
  35 H35            5.2347     6.1260     0.4376 H       
  36 H36            5.3119     4.8493     1.6755 H       
  37 H37            6.6183     5.0070     0.4769 H       
@<TRIPOS>BOND
   1    1    2 2
   2    1   11 1
   3    1    6 1
   4    2    3 1
   5    2   23 1
   6    3    4 2
   7    3   24 1
   8    4    5 1
   9    4   25 1
  10    5    6 1
  11    5    7 1
  12    6   10 2
  13    7    8 1
  14    7   26 1
  15    7   27 1
  16    8    9 1
  17    8   28 1
  18    8   29 1
  19    9   10 am
  20    9   12 2
  21    9   13 2
  22   11   14 ar
  23   11   18 ar
  24   14   15 ar
  25   14   30 1
  26   15   16 ar
  27   15   19 1
  28   16   17 ar
  29   16   21 1
  30   17   18 ar
  31   17   31 1
  32   18   32 1
  33   19   20 2
  34   19   33 1
  35   20   21 1
  36   20   34 1
  37   21   22 1
  38   22   35 1
  39   22   36 1
  40   22   37 1

#	End of record

