#	Name: ASD00731009
#	Creating user name:	WinNT
#	Creation time:	15. 06. 2019 18:37

#	Modifying user name:	WinNT
#	Modification time:	15. 06. 2019 18:37

#	Program:	/corina/corina34_cracker 3.40 0067  02.08.2006

@<TRIPOS>MOLECULE
ASD00731009
 193  192    0    0    0
SMALL
NO_CHARGES


@<TRIPOS>ATOM
   1 C1            -1.2576    -0.6582     0.0292 C.2     
   2 O2            -1.3259    -1.8631     0.1490 O.2     
   3 N3             1.1468    -0.8983     0.2862 N.3     
   4 C4             0.0812     0.0048    -0.1687 C.3     
   5 C5             0.2794     0.3210    -1.6524 C.3     
   6 C6             1.5804     1.1045    -1.8375 C.3     
   7 C7             1.7787     1.4207    -3.3213 C.3     
   8 N8             3.0245     2.1710    -3.4985 N.pl3   
   9 C9             3.4146     2.5683    -4.7551 C.2     
  10 N10            2.7438     2.1756    -5.7995 N.2     
  11 N11            4.5185     3.3845    -4.9099 N.am    
  12 C12           -4.7629     0.3152    -0.3300 C.2     
  13 O13           -4.4741     1.3720    -0.8503 O.2     
  14 N14           -2.3797     0.0874     0.0674 N.am    
  15 C15           -3.6818    -0.5576     0.2536 C.3     
  16 C16           -3.9414    -0.7606     1.7477 C.3     
  17 O17           -4.0546     0.5116     2.3887 O.3     
  18 C18           -8.4109     0.4730    -0.1567 C.2     
  19 O19           -8.4613    -0.3648     0.7189 O.2     
  20 N20           -6.0506    -0.0786    -0.2737 N.am    
  21 C21           -7.1015     0.7698    -0.8411 C.3     
  22 C22           -7.2331     0.4860    -2.3388 C.3     
  23 C23           -7.5965    -0.9853    -2.5490 C.3     
  24 C24           -7.8501    -1.2405    -4.0361 C.3     
  25 C25           -5.9037     0.7873    -3.0337 C.3     
  26 C26          -11.9385     1.2100    -0.7701 C.2     
  27 O27          -11.7099     1.6629    -1.8717 O.2     
  28 N28           -9.5260     1.1386    -0.5175 N.am    
  29 C29          -10.7989     0.8500     0.1479 C.3     
  30 C30          -10.9003     1.6731     1.4337 C.3     
  31 C31           -9.8183     1.2199     2.4160 C.3     
  32 C32           -9.9197     2.0430     3.7017 C.3     
  33 N33           -8.8837     1.6091     4.6423 N.pl3   
  34 C34           -8.7789     2.2095     5.8746 C.2     
  35 N35           -7.8572     1.8235     6.7114 N.2     
  36 N36           -9.6465     3.2171     6.2243 N.pl3   
  37 C37          -15.5491     1.6765    -0.4408 C.2     
  38 O38          -15.5045     1.6039     0.7690 O.2     
  39 N39          -13.2117     1.0285    -0.3670 N.am    
  40 C40          -14.3195     1.3784    -1.2594 C.3     
  41 C41          -14.6054     0.2069    -2.2011 C.3     
  42 O42          -15.0698    -0.9115    -1.4425 O.3     
  43 C43          -19.1243     2.0637    -0.9988 C.2     
  44 O44          -19.0828     1.8316    -2.1884 O.2     
  45 N45          -16.6984     2.0239    -1.0530 N.am    
  46 C46          -17.8622     2.4199    -0.2562 C.3     
  47 C47          -17.8232     3.9298    -0.0118 C.3     
  48 C48          -19.0109     4.3358     0.8630 C.3     
  49 C49          -18.8783     3.6805     2.2392 C.3     
  50 C50          -19.0304     5.8573     1.0223 C.3     
  51 C51          -22.1384     2.6908    -1.7666 C.2     
  52 O52          -21.6349     3.7929    -1.7158 O.2     
  53 N53          -20.2990     2.0031    -0.3409 N.am    
  54 C54          -21.5032     1.5376    -1.0333 C.3     
  55 C55          -22.4936     0.9751    -0.0117 C.3     
  56 C56          -21.8966    -0.2714     0.6445 C.3     
  57 C57          -22.8870    -0.8339     1.6661 C.3     
  58 N58          -22.3154    -2.0275     2.2944 N.pl3   
  59 C59          -23.0289    -2.7089     3.2519 C.2     
  60 N60          -24.2139    -2.2929     3.6006 N.2     
  61 N61          -22.4925    -3.8290     3.8416 N.pl3   
  62 C62          -24.7811     4.3792    -2.2500 C.2     
  63 O63          -24.8932     4.0219    -1.1013 O.2     
  64 N64          -23.2662     2.4973    -2.4788 N.am    
  65 C65          -23.8837     3.6183    -3.1917 C.3     
  66 C66          -24.7098     3.0844    -4.3636 C.3     
  67 C67          -23.7948     2.4299    -5.3663 C.2     
  68 O68          -22.5996     2.3940    -5.1635 O.2     
  69 N69          -24.3046     1.8845    -6.4884 N.am    
  70 O70          -25.4557     5.4541    -2.6874 O.3     
  71 C71            5.1409     3.8889    -3.8261 C.2     
  72 O72            4.7844     3.5606    -2.7147 O.2     
  73 C73           18.0508    14.6760     4.4299 C.3     
  74 C74           16.8944    13.6890     4.6020 C.3     
  75 C75           16.3692    13.2738     3.2263 C.3     
  76 C76           15.2129    12.2869     3.3984 C.3     
  77 C77           14.6877    11.8717     2.0226 C.3     
  78 C78           13.5313    10.8847     2.1947 C.3     
  79 C79           13.0061    10.4696     0.8190 C.3     
  80 C80           11.8497     9.4826     0.9911 C.3     
  81 C81           11.3245     9.0674    -0.3847 C.3     
  82 C82           10.1682     8.0805    -0.2126 C.3     
  83 C83            9.6430     7.6653    -1.5883 C.3     
  84 C84            8.4866     6.6783    -1.4162 C.3     
  85 C85            7.9614     6.2632    -2.7920 C.3     
  86 C86            6.8051     5.2762    -2.6199 C.3     
  87 C87            6.2799     4.8610    -3.9956 C.3     
  88 H88            1.1341    -1.7632    -0.2334 H       
  89 H89            2.0497    -0.4524     0.2240 H       
  90 H90            0.1176     0.9291     0.4078 H       
  91 H91            0.3318    -0.6091    -2.2183 H       
  92 H92           -0.5586     0.9182    -2.0118 H       
  93 H93            1.5281     2.0347    -1.2717 H       
  94 H94            2.4185     0.5073    -1.4782 H       
  95 H95            1.8311     0.4906    -3.8872 H       
  96 H96            0.9406     2.0179    -3.6807 H       
  97 H97            3.5740     2.3873    -2.7290 H       
  98 H98            2.9742     2.5135    -6.6791 H       
  99 H99            4.8456     3.5944    -5.7986 H       
 100 H100          -2.3252     1.0511    -0.0285 H       
 101 H101          -3.6838    -1.5243    -0.2501 H       
 102 H102          -4.8674    -1.3193     1.8831 H       
 103 H103          -3.1138    -1.3168     2.1880 H       
 104 H104          -4.2199     0.4594     3.3400 H       
 105 H105          -6.2816    -0.9239     0.1424 H       
 106 H106          -6.8426     1.8180    -0.6913 H       
 107 H107          -8.0150     1.1173    -2.7609 H       
 108 H108          -6.7749    -1.6149    -2.2073 H       
 109 H109          -8.4962    -1.2221    -1.9811 H       
 110 H110          -8.1090    -2.2886    -4.1859 H       
 111 H111          -8.6716    -0.6109    -4.3779 H       
 112 H112          -6.9504    -1.0037    -4.6040 H       
 113 H113          -5.9974     0.5851    -4.1006 H       
 114 H114          -5.6448     1.8355    -2.8839 H       
 115 H115          -5.1218     0.1560    -2.6115 H       
 116 H116          -9.4857     1.8086    -1.2177 H       
 117 H117         -10.8494    -0.2113     0.3909 H       
 118 H118         -10.7609     2.7288     1.2012 H       
 119 H119         -11.8828     1.5265     1.8824 H       
 120 H120          -9.9577     0.1642     2.6484 H       
 121 H121          -8.8358     1.3665     1.9673 H       
 122 H122          -9.7803     3.0987     3.4693 H       
 123 H123         -10.9022     1.8964     4.1504 H       
 124 H124          -8.2716     0.8982     4.3955 H       
 125 H125          -7.7833     2.2471     7.5809 H       
 126 H126         -10.3325     3.5043     5.6016 H       
 127 H127          -9.5726     3.6407     7.0938 H       
 128 H128         -13.3945     0.6663     0.5141 H       
 129 H129         -14.0507     2.2578    -1.8447 H       
 130 H130         -15.3685     0.4986    -2.9226 H       
 131 H131         -13.6917    -0.0663    -2.7289 H       
 132 H132         -15.2712    -1.6924    -1.9762 H       
 133 H133         -16.7551     2.0117    -2.0213 H       
 134 H134         -17.8432     1.8965     0.6998 H       
 135 H135         -16.8935     4.1922     0.4932 H       
 136 H136         -17.8787     4.4538    -0.9660 H       
 137 H137         -19.9377     4.0078     0.3922 H       
 138 H138         -17.9112     3.9366     2.6718 H       
 139 H139         -19.6746     4.0399     2.8910 H       
 140 H140         -18.9546     2.5982     2.1351 H       
 141 H141         -19.1249     6.3241     0.0419 H       
 142 H142         -19.8766     6.1465     1.6455 H       
 143 H143         -18.1036     6.1852     1.4931 H       
 144 H144         -20.3471     2.2678     0.5911 H       
 145 H145         -21.2341     0.7579    -1.7459 H       
 146 H146         -22.6944     1.7268     0.7517 H       
 147 H147         -23.4237     0.7108    -0.5148 H       
 148 H148         -21.6958    -1.0231    -0.1189 H       
 149 H149         -20.9665    -0.0071     1.1476 H       
 150 H150         -23.0878    -0.0822     2.4295 H       
 151 H151         -23.8171    -1.0983     1.1629 H       
 152 H152         -21.4335    -2.3370     2.0349 H       
 153 H153         -24.7174    -2.7737     4.2762 H       
 154 H154         -21.6106    -4.1385     3.5821 H       
 155 H155         -22.9959    -4.3097     4.5171 H       
 156 H156         -23.6689     1.6158    -2.5194 H       
 157 H157         -23.1057     4.2823    -3.5683 H       
 158 H158         -25.4299     2.3528    -3.9971 H       
 159 H159         -25.2401     3.9091    -4.8398 H       
 160 H160         -25.2605     1.9132    -6.6506 H       
 161 H161         -23.7156     1.4632    -7.1337 H       
 162 H162         -26.0187     5.9097    -2.0466 H       
 163 H163          18.4250    14.9717     5.4100 H       
 164 H164          18.8520    14.2017     3.8631 H       
 165 H165          17.6993    15.5576     3.8940 H       
 166 H166          17.2460    12.8073     5.1380 H       
 167 H167          16.0933    14.1633     5.1688 H       
 168 H168          16.0177    14.1555     2.6903 H       
 169 H169          17.1704    12.7995     2.6595 H       
 170 H170          15.5644    11.4052     3.9343 H       
 171 H171          14.4117    12.7612     3.9652 H       
 172 H172          14.3361    12.7533     1.4867 H       
 173 H173          15.4889    11.3974     1.4558 H       
 174 H174          13.8828    10.0031     2.7307 H       
 175 H175          12.7301    11.3590     2.7615 H       
 176 H176          12.6546    11.3512     0.2830 H       
 177 H177          13.8073     9.9953     0.2522 H       
 178 H178          12.2013     8.6009     1.5270 H       
 179 H179          11.0486     9.9569     1.5579 H       
 180 H180          10.9730     9.9491    -0.9206 H       
 181 H181          12.1257     8.5931    -0.9515 H       
 182 H182          10.5197     7.1988     0.3234 H       
 183 H183           9.3670     8.5548     0.3542 H       
 184 H184           9.2915     8.5469    -2.1243 H       
 185 H185          10.4442     7.1910    -2.1551 H       
 186 H186           8.8381     5.7967    -0.8803 H       
 187 H187           7.6854     7.1526    -0.8494 H       
 188 H188           7.6099     7.1448    -3.3279 H       
 189 H189           8.7626     5.7889    -3.3588 H       
 190 H190           7.1566     4.3945    -2.0839 H       
 191 H191           6.0039     5.7505    -2.0531 H       
 192 H192           7.0810     4.3867    -4.5624 H       
 193 H193           5.9283     5.7427    -4.5316 H       
@<TRIPOS>BOND
   1    1    2 2
   2    1    4 1
   3    1   14 am
   4    3    4 1
   5    3   88 1
   6    3   89 1
   7    4    5 1
   8    4   90 1
   9    5    6 1
  10    5   91 1
  11    5   92 1
  12    6    7 1
  13    6   93 1
  14    6   94 1
  15    7    8 1
  16    7   95 1
  17    7   96 1
  18    8    9 1
  19    8   97 1
  20    9   10 2
  21    9   11 1
  22   10   98 1
  23   11   71 am
  24   11   99 1
  25   12   13 2
  26   12   15 1
  27   12   20 am
  28   14   15 1
  29   14  100 1
  30   15   16 1
  31   15  101 1
  32   16   17 1
  33   16  102 1
  34   16  103 1
  35   17  104 1
  36   18   19 2
  37   18   21 1
  38   18   28 am
  39   20   21 1
  40   20  105 1
  41   21   22 1
  42   21  106 1
  43   22   23 1
  44   22   25 1
  45   22  107 1
  46   23   24 1
  47   23  108 1
  48   23  109 1
  49   24  110 1
  50   24  111 1
  51   24  112 1
  52   25  113 1
  53   25  114 1
  54   25  115 1
  55   26   27 2
  56   26   29 1
  57   26   39 am
  58   28   29 1
  59   28  116 1
  60   29   30 1
  61   29  117 1
  62   30   31 1
  63   30  118 1
  64   30  119 1
  65   31   32 1
  66   31  120 1
  67   31  121 1
  68   32   33 1
  69   32  122 1
  70   32  123 1
  71   33   34 1
  72   33  124 1
  73   34   35 2
  74   34   36 1
  75   35  125 1
  76   36  126 1
  77   36  127 1
  78   37   38 2
  79   37   40 1
  80   37   45 am
  81   39   40 1
  82   39  128 1
  83   40   41 1
  84   40  129 1
  85   41   42 1
  86   41  130 1
  87   41  131 1
  88   42  132 1
  89   43   44 2
  90   43   46 1
  91   43   53 am
  92   45   46 1
  93   45  133 1
  94   46   47 1
  95   46  134 1
  96   47   48 1
  97   47  135 1
  98   47  136 1
  99   48   49 1
 100   48   50 1
 101   48  137 1
 102   49  138 1
 103   49  139 1
 104   49  140 1
 105   50  141 1
 106   50  142 1
 107   50  143 1
 108   51   52 2
 109   51   54 1
 110   51   64 am
 111   53   54 1
 112   53  144 1
 113   54   55 1
 114   54  145 1
 115   55   56 1
 116   55  146 1
 117   55  147 1
 118   56   57 1
 119   56  148 1
 120   56  149 1
 121   57   58 1
 122   57  150 1
 123   57  151 1
 124   58   59 1
 125   58  152 1
 126   59   60 2
 127   59   61 1
 128   60  153 1
 129   61  154 1
 130   61  155 1
 131   62   63 2
 132   62   65 1
 133   62   70 1
 134   64   65 1
 135   64  156 1
 136   65   66 1
 137   65  157 1
 138   66   67 1
 139   66  158 1
 140   66  159 1
 141   67   68 2
 142   67   69 am
 143   69  160 1
 144   69  161 1
 145   70  162 1
 146   71   72 2
 147   71   87 1
 148   73   74 1
 149   73  163 1
 150   73  164 1
 151   73  165 1
 152   74   75 1
 153   74  166 1
 154   74  167 1
 155   75   76 1
 156   75  168 1
 157   75  169 1
 158   76   77 1
 159   76  170 1
 160   76  171 1
 161   77   78 1
 162   77  172 1
 163   77  173 1
 164   78   79 1
 165   78  174 1
 166   78  175 1
 167   79   80 1
 168   79  176 1
 169   79  177 1
 170   80   81 1
 171   80  178 1
 172   80  179 1
 173   81   82 1
 174   81  180 1
 175   81  181 1
 176   82   83 1
 177   82  182 1
 178   82  183 1
 179   83   84 1
 180   83  184 1
 181   83  185 1
 182   84   85 1
 183   84  186 1
 184   84  187 1
 185   85   86 1
 186   85  188 1
 187   85  189 1
 188   86   87 1
 189   86  190 1
 190   86  191 1
 191   87  192 1
 192   87  193 1

#	End of record

