#	Name: ASD01815948
#	Creating user name:	WinNT
#	Creation time:	15. 06. 2019 19:34

#	Modifying user name:	WinNT
#	Modification time:	15. 06. 2019 19:34

#	Program:	/corina/corina34_cracker 3.40 0067  02.08.2006

@<TRIPOS>MOLECULE
ASD01815948
  55   60    0    0    0
SMALL
NO_CHARGES


@<TRIPOS>ATOM
   1 C1             1.1844     2.2598    -0.5288 C.ar    
   2 C2             0.8010     0.9287    -0.5124 C.ar    
   3 C3             1.7395    -0.0724    -0.3553 C.ar    
   4 C4             3.0863     0.2502    -0.2119 C.ar    
   5 C5             3.4722     1.6003    -0.2293 C.ar    
   6 C6             2.5160     2.6013    -0.3880 C.ar    
   7 N7             4.0322    -0.7491    -0.0535 N.pl3   
   8 C8             5.3432    -0.4984     0.0895 C.2     
   9 C9             5.8376     0.7824     0.0881 C.2     
  10 C10            4.9040     1.9200    -0.0758 C.2     
  11 C11            7.1587     1.3896     0.2160 C.2     
  12 N12            6.9694     2.7241     0.1311 N.am    
  13 N13            5.6132     3.0116    -0.0430 N.2     
  14 C14            7.9874     3.6831     0.2063 C.ar    
  15 O15            8.2207     0.8083     0.3696 O.2     
  16 C16            3.5814    -2.1429    -0.0411 C.3     
  17 C17            3.4352    -2.6362    -1.4576 C.ar    
  18 C18            4.5172    -2.5904    -2.3207 C.ar    
  19 C19            4.3844    -3.0425    -3.6217 C.ar    
  20 C20            3.1660    -3.5420    -4.0596 C.ar    
  21 C21            2.0836    -3.5866    -3.1907 C.ar    
  22 C22            2.2225    -3.1390    -1.8916 C.ar    
  23 F23            2.8891     3.8996    -0.4046 F       
  24 F24            1.3502    -1.3660    -0.3404 F       
  25 C25            8.7043     4.0277    -0.9318 C.ar    
  26 C26            9.7077     4.9737    -0.8546 C.ar    
  27 C27            9.9998     5.5784     0.3544 C.ar    
  28 C28            9.2889     5.2388     1.4907 C.ar    
  29 C29            8.2789     4.2966     1.4199 C.ar    
  30 F30            7.5842     3.9646     2.5300 F       
  31 F31            5.7025    -2.1038    -1.8925 F       
  32 N32            3.0279    -4.0005    -5.3774 N.pl3   
  33 N33            3.9693    -3.9999    -6.2534 N.2     
  34 C34            3.5006    -4.4954    -7.3768 C.2     
  35 C35            2.1628    -4.8120    -7.1264 C.2     
  36 N36            1.9441    -4.4840    -5.8728 N.2     
  37 C37            1.1751    -5.4117    -8.0938 C.3     
  38 N38            1.1439    -6.8701    -7.9207 N.3     
  39 H39            0.4409     3.0327    -0.6565 H       
  40 H40           -0.2421     0.6713    -0.6232 H       
  41 H41            6.0268    -1.3259     0.2093 H       
  42 H42            4.3134    -2.7569     0.4837 H       
  43 H43            2.6198    -2.2093     0.4678 H       
  44 H44            5.2277    -3.0063    -4.2954 H       
  45 H45            1.1344    -3.9747    -3.5297 H       
  46 H46            1.3804    -3.1739    -1.2163 H       
  47 H47            8.4777     3.5561    -1.8766 H       
  48 H48           10.2655     5.2414    -1.7398 H       
  49 H49           10.7853     6.3175     0.4112 H       
  50 H50            9.5198     5.7127     2.4333 H       
  51 H51            4.0388    -4.6299    -8.3034 H       
  52 H52            0.1836    -5.0017    -7.9017 H       
  53 H53            1.4754    -5.1733    -9.1142 H       
  54 H54            0.4885    -7.2960    -8.5588 H       
  55 H55            2.0650    -7.2670    -8.0302 H       
@<TRIPOS>BOND
   1    1    2 ar
   2    1    6 ar
   3    1   39 1
   4    2    3 ar
   5    2   40 1
   6    3    4 ar
   7    3   24 1
   8    4    5 ar
   9    4    7 1
  10    5    6 ar
  11    5   10 1
  12    6   23 1
  13    7    8 1
  14    7   16 1
  15    8    9 2
  16    8   41 1
  17    9   10 1
  18    9   11 1
  19   10   13 2
  20   11   12 am
  21   11   15 2
  22   12   13 1
  23   12   14 1
  24   14   25 ar
  25   14   29 ar
  26   16   17 1
  27   16   42 1
  28   16   43 1
  29   17   18 ar
  30   17   22 ar
  31   18   19 ar
  32   18   31 1
  33   19   20 ar
  34   19   44 1
  35   20   21 ar
  36   20   32 1
  37   21   22 ar
  38   21   45 1
  39   22   46 1
  40   25   26 ar
  41   25   47 1
  42   26   27 ar
  43   26   48 1
  44   27   28 ar
  45   27   49 1
  46   28   29 ar
  47   28   50 1
  48   29   30 1
  49   32   33 1
  50   32   36 1
  51   33   34 2
  52   34   35 1
  53   34   51 1
  54   35   36 2
  55   35   37 1
  56   37   38 1
  57   37   52 1
  58   37   53 1
  59   38   54 1
  60   38   55 1

#	End of record

