#	Name: ASD01209146
#	Creating user name:	WinNT
#	Creation time:	15. 06. 2019 19:11

#	Modifying user name:	WinNT
#	Modification time:	15. 06. 2019 19:11

#	Program:	/corina/corina34_cracker 3.40 0067  02.08.2006

@<TRIPOS>MOLECULE
ASD01209146
  65   66    0    0    0
SMALL
NO_CHARGES


@<TRIPOS>ATOM
   1 C1             0.0684     1.2022     0.6330 C.ar    
   2 C2            -0.0062    -0.1640     0.4085 C.ar    
   3 C3            -1.2389    -0.7645     0.2058 C.ar    
   4 C4            -2.3953     0.0028     0.2280 C.ar    
   5 C5            -2.3183     1.3640     0.4515 C.ar    
   6 C6            -1.0909     1.9640     0.6595 C.ar    
   7 O7             1.2756     1.7937     0.8325 O.3     
   8 C8             1.2900     3.2186     0.9395 C.3     
   9 O9            -1.3152    -2.1032    -0.0149 O.3     
  10 C10           -0.0804    -2.8115    -0.1399 C.3     
  11 C11           -4.2479    -1.1990     1.3142 C.2     
  12 N12           -5.4380    -1.8300     1.3597 N.am    
  13 O13           -3.5891    -1.0734     2.3247 O.2     
  14 C14           -5.9102    -2.3369     2.5648 C.2     
  15 P15           -8.3488    -5.8950     4.0689 P.3     
  16 O16           -7.1976    -6.3196     4.8964 O.2     
  17 C17           -8.6085    -4.1012     4.2637 C.3     
  18 S18           -5.0892    -2.2309     4.0607 S.3     
  19 N19           -7.0397    -2.9539     2.7190 N.2     
  20 C20           -7.3316    -3.3704     3.9369 C.2     
  21 C21           -6.4055    -3.0903     4.8560 C.2     
  22 O22           -8.0505    -6.2294     2.5225 O.3     
  23 O23           -9.6703    -6.6831     4.5431 O.3     
  24 C24            0.9920     3.6246     2.3843 C.3     
  25 C25           -7.7019    -7.5365     2.0621 C.3     
  26 C26           -7.4873    -7.5033     0.5476 C.3     
  27 C27           -9.7444    -8.1087     4.6099 C.3     
  28 C28          -11.1339    -8.5249     5.0966 C.3     
  29 C29            0.4314    -3.1936     1.2504 C.3     
  30 C30            2.6681     3.7464     0.5354 C.3     
  31 C31           -0.3011    -4.0789    -0.9682 C.3     
  32 C32           -3.7359    -0.6494     0.0078 C.3     
  33 H33            0.8948    -0.7593     0.3912 H       
  34 H34           -3.2192     1.9594     0.4680 H       
  35 H35           -1.0333     3.0283     0.8339 H       
  36 H36            0.5317     3.6402     0.2798 H       
  37 H37            0.6540    -2.1768    -0.6357 H       
  38 H38           -5.9649    -1.9304     0.5515 H       
  39 H39           -9.3981    -3.7728     3.5879 H       
  40 H40           -8.8975    -3.8854     5.2923 H       
  41 H41           -6.4556    -3.3435     5.9047 H       
  42 H42            1.0031     4.7115     2.4659 H       
  43 H43            0.0103     3.2486     2.6722 H       
  44 H44            1.7504     3.2029     3.0440 H       
  45 H45           -6.7841    -7.8615     2.5520 H       
  46 H46           -8.5067    -8.2321     2.2998 H       
  47 H47           -7.2215    -8.5003     0.1963 H       
  48 H48           -8.4051    -7.1782     0.0576 H       
  49 H49           -6.6825    -6.8076     0.3098 H       
  50 H50           -9.5652    -8.5286     3.6202 H       
  51 H51           -8.9902    -8.4795     5.3040 H       
  52 H52          -11.1904    -9.6122     5.1476 H       
  53 H53          -11.3131    -8.1049     6.0864 H       
  54 H54          -11.8881    -8.1540     4.4025 H       
  55 H55            0.5885    -2.2907     1.8405 H       
  56 H56           -0.3030    -3.8284     1.7462 H       
  57 H57            1.3732    -3.7339     1.1551 H       
  58 H58            2.8804     3.4571    -0.4939 H       
  59 H59            2.6791     4.8333     0.6170 H       
  60 H60            3.4264     3.3248     1.1951 H       
  61 H61           -0.6657    -3.8067    -1.9587 H       
  62 H62            0.6408    -4.6192    -1.0636 H       
  63 H63           -1.0355    -4.7137    -0.4724 H       
  64 H64           -4.4400     0.0884    -0.3769 H       
  65 H65           -3.6311    -1.4614    -0.7118 H       
@<TRIPOS>BOND
   1    1    2 ar
   2    1    7 1
   3    1    6 ar
   4    2    3 ar
   5    2   33 1
   6    3    4 ar
   7    3    9 1
   8    4    5 ar
   9    4   32 1
  10    5    6 ar
  11    5   34 1
  12    6   35 1
  13    7    8 1
  14    8   24 1
  15    8   30 1
  16    8   36 1
  17    9   10 1
  18   10   29 1
  19   10   31 1
  20   10   37 1
  21   11   12 am
  22   11   13 2
  23   11   32 1
  24   12   14 1
  25   12   38 1
  26   14   18 1
  27   14   19 2
  28   15   16 2
  29   15   22 1
  30   15   17 1
  31   15   23 1
  32   17   20 1
  33   17   39 1
  34   17   40 1
  35   18   21 1
  36   19   20 1
  37   20   21 2
  38   21   41 1
  39   22   25 1
  40   23   27 1
  41   24   42 1
  42   24   43 1
  43   24   44 1
  44   25   26 1
  45   25   45 1
  46   25   46 1
  47   26   47 1
  48   26   48 1
  49   26   49 1
  50   27   28 1
  51   27   50 1
  52   27   51 1
  53   28   52 1
  54   28   53 1
  55   28   54 1
  56   29   55 1
  57   29   56 1
  58   29   57 1
  59   30   58 1
  60   30   59 1
  61   30   60 1
  62   31   61 1
  63   31   62 1
  64   31   63 1
  65   32   64 1
  66   32   65 1

#	End of record

