#	Name: ASD03220006
#	Creating user name:	WinNT
#	Creation time:	15. 06. 2019 20:34

#	Modifying user name:	WinNT
#	Modification time:	15. 06. 2019 20:34

#	Program:	/corina/corina34_cracker 3.40 0067  02.08.2006

@<TRIPOS>MOLECULE
ASD03220006
  57   58    0    0    0
SMALL
NO_CHARGES


@<TRIPOS>ATOM
   1 C1            -0.0187     1.5258     0.0104 C.3     
   2 C2             0.0021    -0.0041     0.0020 C.3     
   3 C3            -1.4333    -0.5336     0.0129 C.3     
   4 C4            -1.4126    -2.0635     0.0045 C.3     
   5 C5            -2.8479    -2.5931     0.0153 C.3     
   6 C6            -2.8272    -4.1229     0.0069 C.3     
   7 C7            -4.2626    -4.6525     0.0178 C.3     
   8 C8            -4.2418    -6.1823     0.0094 C.3     
   9 C9            -5.6772    -6.7119     0.0202 C.3     
  10 O10           -5.6578    -8.1407     0.0124 O.3     
  11 C11           -6.8602    -8.7741     0.0204 C.ar    
  12 C12           -6.9153   -10.1603     0.0135 C.ar    
  13 C13           -8.1388   -10.8018     0.0217 C.ar    
  14 C14           -9.3077   -10.0635     0.0368 C.ar    
  15 C15           -9.2554    -8.6818     0.0433 C.ar    
  16 C16           -8.0344    -8.0356     0.0413 C.ar    
  17 C17          -10.6410   -10.7659     0.0457 C.3     
  18 O18          -11.0496   -10.9951     1.3957 O.3     
  19 C19          -12.2374   -11.6227     1.5813 C.ar    
  20 C20          -12.9965   -12.0112     0.4900 C.ar    
  21 C21          -14.2080   -12.6512     0.6763 C.ar    
  22 C22          -14.6763   -12.9110     1.9507 C.ar    
  23 C23          -13.9347   -12.5319     3.0577 C.ar    
  24 C24          -12.7000   -11.8864     2.8812 C.ar    
  25 C25          -11.9045   -11.4801     4.0461 C.2     
  26 O26          -12.3166   -11.7036     5.1766 O.co2   
  27 O27          -10.8291   -10.9178     3.8868 O.co2   
  28 O28          -14.3967   -12.7876     4.3068 O.3     
  29 H29            1.0039     1.9031     0.0027 H       
  30 H30           -0.5459     1.8868    -0.8726 H       
  31 H31           -0.5289     1.8773     0.9072 H       
  32 H32            0.5123    -0.3556    -0.8948 H       
  33 H33            0.5293    -0.3651     0.8851 H       
  34 H34           -1.9435    -0.1821     0.9097 H       
  35 H35           -1.9605    -0.1726    -0.8702 H       
  36 H36           -0.9024    -2.4150    -0.8923 H       
  37 H37           -0.8854    -2.4246     0.8875 H       
  38 H38           -3.3581    -2.2415     0.9121 H       
  39 H39           -3.3751    -2.2320    -0.8677 H       
  40 H40           -2.3170    -4.4744    -0.8899 H       
  41 H41           -2.3000    -4.4840     0.8900 H       
  42 H42           -4.7728    -4.3010     0.9146 H       
  43 H43           -4.7898    -4.2914    -0.8653 H       
  44 H44           -3.7316    -6.5338    -0.8874 H       
  45 H45           -3.7146    -6.5434     0.8924 H       
  46 H46           -6.1874    -6.3604     0.9170 H       
  47 H47           -6.2044    -6.3508    -0.8628 H       
  48 H48           -6.0026   -10.7375     0.0014 H       
  49 H49           -8.1823   -11.8809     0.0160 H       
  50 H50          -10.1699    -8.1074     0.0543 H       
  51 H51           -7.9941    -6.9564     0.0464 H       
  52 H52          -11.3821   -10.1451    -0.4578 H       
  53 H53          -10.5526   -11.7198    -0.4741 H       
  54 H54          -12.6409   -11.8132    -0.5104 H       
  55 H55          -14.7932   -12.9501    -0.1808 H       
  56 H56          -15.6242   -13.4112     2.0838 H       
  57 H57          -14.1193   -13.6435     4.6612 H       
@<TRIPOS>BOND
   1    1    2 1
   2    1   29 1
   3    1   30 1
   4    1   31 1
   5    2    3 1
   6    2   32 1
   7    2   33 1
   8    3    4 1
   9    3   34 1
  10    3   35 1
  11    4    5 1
  12    4   36 1
  13    4   37 1
  14    5    6 1
  15    5   38 1
  16    5   39 1
  17    6    7 1
  18    6   40 1
  19    6   41 1
  20    7    8 1
  21    7   42 1
  22    7   43 1
  23    8    9 1
  24    8   44 1
  25    8   45 1
  26    9   10 1
  27    9   46 1
  28    9   47 1
  29   10   11 1
  30   11   12 ar
  31   11   16 ar
  32   12   13 ar
  33   12   48 1
  34   13   14 ar
  35   13   49 1
  36   14   15 ar
  37   14   17 1
  38   15   16 ar
  39   15   50 1
  40   16   51 1
  41   17   18 1
  42   17   52 1
  43   17   53 1
  44   18   19 1
  45   19   20 ar
  46   19   24 ar
  47   20   21 ar
  48   20   54 1
  49   21   22 ar
  50   21   55 1
  51   22   23 ar
  52   22   56 1
  53   23   24 ar
  54   23   28 1
  55   24   25 1
  56   25   26 ar
  57   25   27 ar
  58   28   57 1

#	End of record

