#	Name: ASD09740032
#	Creating user name:	WinNT
#	Creation time:	15. 06. 2019 21:22

#	Modifying user name:	WinNT
#	Modification time:	15. 06. 2019 21:22

#	Program:	/corina/corina34_cracker 3.40 0067  02.08.2006

@<TRIPOS>MOLECULE
ASD09740032
  54   57    0    0    0
SMALL
NO_CHARGES


@<TRIPOS>ATOM
   1 C1            -0.0167     1.3774     0.0096 C.ar    
   2 C2             0.0021    -0.0041     0.0020 C.ar    
   3 C3            -1.2000    -0.7159     0.0102 C.ar    
   4 C4            -2.4150    -0.0283     0.0259 C.ar    
   5 C5            -2.4268     1.3506     0.0330 C.ar    
   6 C6            -1.2331     2.0577     0.0307 C.ar    
   7 O7            -1.2500     3.4162     0.0377 O.3     
   8 C8            -2.5311     4.0491     0.0473 C.3     
   9 C9            -2.3495     5.5682     0.0541 C.3     
  10 O10            1.1517     2.0734     0.0022 O.3     
  11 C11            2.3606     1.3115    -0.0134 C.3     
  12 C12            3.5611     2.2600    -0.0198 C.3     
  13 C13           -1.1856    -2.1927     0.0016 C.2     
  14 N14           -2.2383    -2.9899     0.0077 N.2     
  15 C15           -1.7409    -4.2441    -0.0044 C.2     
  16 N16           -0.4362    -4.1470    -0.0171 N.2     
  17 O17           -0.0999    -2.9818    -0.0198 O.3     
  18 C18           -2.5288    -5.5022    -0.0036 C.ar    
  19 C19           -3.9202    -5.4526     0.0108 C.ar    
  20 C20           -4.6482    -6.6250     0.0112 C.ar    
  21 C21           -3.9974    -7.8443    -0.0027 C.ar    
  22 C22           -2.6130    -7.9018    -0.0168 C.ar    
  23 C23           -1.8755    -6.7348    -0.0231 C.ar    
  24 C24           -1.6820    -9.0955    -0.0335 C.3     
  25 C25           -0.3070    -8.5414     0.3960 C.3     
  26 C26           -0.3978    -7.0618    -0.0387 C.3     
  27 N27           -2.1417   -10.1138     0.9204 N.3     
  28 C28           -3.1303   -11.0068     0.3013 C.3     
  29 O29           -2.4725   -12.1739    -0.1959 O.3     
  30 H30            0.9439    -0.5325    -0.0105 H       
  31 H31           -3.3456    -0.5763     0.0323 H       
  32 H32           -3.3674     1.8813     0.0448 H       
  33 H33           -3.0889     3.7538    -0.8415 H       
  34 H34           -3.0801     3.7448     0.9384 H       
  35 H35           -1.7918     5.8635     0.9429 H       
  36 H36           -1.8006     5.8726    -0.8371 H       
  37 H37           -3.3267     6.0510     0.0614 H       
  38 H38            2.4025     0.6783     0.8728 H       
  39 H39            2.3855     0.6879    -0.9071 H       
  40 H40            4.4832     1.6789    -0.0317 H       
  41 H41            3.5192     2.8932    -0.9060 H       
  42 H42            3.5362     2.8836     0.8738 H       
  43 H43           -4.4281    -4.4996     0.0220 H       
  44 H44           -5.7276    -6.5897     0.0227 H       
  45 H45           -4.5720    -8.7587    -0.0023 H       
  46 H46           -1.6237    -9.5156    -1.0375 H       
  47 H47           -0.1756    -8.6240     1.4749 H       
  48 H48            0.4985    -9.0502    -0.1336 H       
  49 H49            0.0070    -6.9370    -1.0430 H       
  50 H50            0.1372    -6.4266     0.6672 H       
  51 H51           -1.3640   -10.6379     1.2926 H       
  52 H52           -3.8732   -11.2971     1.0443 H       
  53 H53           -3.6227   -10.4889    -0.5217 H       
  54 H54           -3.0657   -12.8097    -0.6189 H       
@<TRIPOS>BOND
   1    1    2 ar
   2    1   10 1
   3    1    6 ar
   4    2    3 ar
   5    2   30 1
   6    3    4 ar
   7    3   13 1
   8    4    5 ar
   9    4   31 1
  10    5    6 ar
  11    5   32 1
  12    6    7 1
  13    7    8 1
  14    8    9 1
  15    8   33 1
  16    8   34 1
  17    9   35 1
  18    9   36 1
  19    9   37 1
  20   10   11 1
  21   11   12 1
  22   11   38 1
  23   11   39 1
  24   12   40 1
  25   12   41 1
  26   12   42 1
  27   13   14 2
  28   13   17 1
  29   14   15 1
  30   15   16 2
  31   15   18 1
  32   16   17 1
  33   18   19 ar
  34   18   23 ar
  35   19   20 ar
  36   19   43 1
  37   20   21 ar
  38   20   44 1
  39   21   22 ar
  40   21   45 1
  41   22   23 ar
  42   22   24 1
  43   23   26 1
  44   24   25 1
  45   24   27 1
  46   24   46 1
  47   25   26 1
  48   25   47 1
  49   25   48 1
  50   26   49 1
  51   26   50 1
  52   27   28 1
  53   27   51 1
  54   28   29 1
  55   28   52 1
  56   28   53 1
  57   29   54 1

#	End of record

