#	Name: ASD01903242
#	Creating user name:	WinNT
#	Creation time:	15. 06. 2019 19:54

#	Modifying user name:	WinNT
#	Modification time:	15. 06. 2019 19:54

#	Program:	/corina/corina34_cracker 3.40 0067  02.08.2006

@<TRIPOS>MOLECULE
ASD01903242
  40   42    0    0    0
SMALL
NO_CHARGES


@<TRIPOS>ATOM
   1 S1            -0.0218     1.7564     0.0117 S.3     
   2 C2             0.0021    -0.0041     0.0020 C.2     
   3 N3             1.2282    -0.4214    -0.0119 N.2     
   4 C4             2.1832     0.5105    -0.0160 C.2     
   5 C5             1.7398     1.7849    -0.0050 C.2     
   6 N6            -1.1228    -0.8211     0.0088 N.pl3   
   7 C7            -0.9782    -2.1990    -0.0000 C.ar    
   8 C8             3.6282     0.1701    -0.0317 C.2     
   9 C9             4.6453     0.8895    -0.6885 C.2     
  10 N10            5.7811     0.2802    -0.4707 N.2     
  11 N11            5.5371    -0.8439     0.3278 N.pl3   
  12 C12            4.2124    -0.8928     0.5925 C.2     
  13 N13           -2.0608    -2.9630     0.0066 N.ar    
  14 C14           -1.9579    -4.2816    -0.0015 C.ar    
  15 C15           -0.6989    -4.8614    -0.0171 C.ar    
  16 C16            0.4123    -4.0328    -0.0237 C.ar    
  17 N17            0.2393    -2.7215    -0.0203 N.ar    
  18 N18            2.5402     2.9305    -0.0072 N.3     
  19 C19            1.7176     4.1475     0.0075 C.3     
  20 C20            3.4811     2.9175     1.1209 C.3     
  21 C21            2.6064     5.3669    -0.2457 C.3     
  22 O22            3.1504     5.2941    -1.5652 O.3     
  23 C23            4.0002     6.3915    -1.9048 C.3     
  24 H24           -2.0088    -0.4264     0.0197 H       
  25 H25            4.5101     1.7884    -1.2717 H       
  26 H26            6.2036    -1.4755     0.6403 H       
  27 H27            3.7073    -1.6417     1.1844 H       
  28 H28           -2.8439    -4.8990     0.0043 H       
  29 H29           -0.5862    -5.9355    -0.0236 H       
  30 H30            1.4072    -4.4528    -0.0357 H       
  31 H31            0.9589     4.0826    -0.7725 H       
  32 H32            1.2328     4.2467     0.9786 H       
  33 H33            4.1250     2.0411     1.0469 H       
  34 H34            4.0916     3.8201     1.0952 H       
  35 H35            2.9249     2.8816     2.0576 H       
  36 H36            2.0129     6.2758    -0.1471 H       
  37 H37            3.4181     5.3822     0.4816 H       
  38 H38            3.4357     7.3217    -1.8405 H       
  39 H39            4.8409     6.4281    -1.2119 H       
  40 H40            4.3724     6.2619    -2.9211 H       
@<TRIPOS>BOND
   1    1    2 1
   2    1    5 1
   3    2    3 2
   4    2    6 1
   5    3    4 1
   6    4    5 2
   7    4    8 1
   8    5   18 1
   9    6    7 1
  10    6   24 1
  11    7   13 ar
  12    7   17 ar
  13    8    9 1
  14    8   12 2
  15    9   10 2
  16    9   25 1
  17   10   11 1
  18   11   12 1
  19   11   26 1
  20   12   27 1
  21   13   14 ar
  22   14   15 ar
  23   14   28 1
  24   15   16 ar
  25   15   29 1
  26   16   17 ar
  27   16   30 1
  28   18   19 1
  29   18   20 1
  30   19   21 1
  31   19   31 1
  32   19   32 1
  33   20   33 1
  34   20   34 1
  35   20   35 1
  36   21   22 1
  37   21   36 1
  38   21   37 1
  39   22   23 1
  40   23   38 1
  41   23   39 1
  42   23   40 1

#	End of record

