#	Name: ASD01881547
#	Creating user name:	WinNT
#	Creation time:	15. 06. 2019 19:42

#	Modifying user name:	WinNT
#	Modification time:	15. 06. 2019 19:42

#	Program:	/corina/corina34_cracker 3.40 0067  02.08.2006

@<TRIPOS>MOLECULE
ASD01881547
  51   54    0    0    0
SMALL
NO_CHARGES


@<TRIPOS>ATOM
   1 C1            -0.0169     1.3954     0.0097 C.ar    
   2 C2             0.0021    -0.0041     0.0020 C.ar    
   3 C3            -1.1638    -0.7121     0.0098 C.ar    
   4 C4            -2.3860    -0.0457     0.0255 C.ar    
   5 C5            -2.4246     1.3597     0.0334 C.ar    
   6 C6            -1.2229     2.0788     0.0307 C.ar    
   7 N7            -3.6960    -0.4626     0.0363 N.pl3   
   8 N8            -4.4858     0.6962     0.0504 N.2     
   9 N9            -3.7254     1.7338     0.0484 N.2     
  10 C10           -4.1738    -1.8475     0.0332 C.3     
  11 C11            1.2600     2.1512     0.0016 C.ar    
  12 Br12          -1.2452     3.9697     0.0418 Br      
  13 C13            2.2651     1.8357     0.9136 C.ar    
  14 C14           -4.3257    -2.3378     1.4745 C.3     
  15 C15           -5.4226    -1.5327     2.1742 C.3     
  16 C16           -4.7042    -3.8203     1.4716 C.3     
  17 C17            1.4606     3.1752    -0.9219 C.ar    
  18 C18            2.6504     3.8746    -0.9253 C.ar    
  19 C19            3.6427     3.5607    -0.0142 C.ar    
  20 C20            3.4510     2.5416     0.9013 C.ar    
  21 C21            4.9400     4.3276    -0.0232 C.3     
  22 N22            4.8285     5.4860     0.8667 N.am    
  23 C23            5.1269     5.5240     2.1779 C.2     
  24 N24            4.9193     6.7319     2.7145 N.am    
  25 C25            4.4613     7.6099     1.8003 C.2     
  26 C26            4.3740     6.8381     0.4986 C.3     
  27 C27            5.1595     7.0595     4.1220 C.3     
  28 O28            5.5388     4.5679     2.8050 O.2     
  29 O29            4.1810     8.7755     1.9808 O.2     
  30 H30            0.9468    -0.5273    -0.0105 H       
  31 H31           -1.1387    -1.7917     0.0034 H       
  32 H32           -5.1387    -1.8977    -0.4713 H       
  33 H33           -3.4562    -2.4782    -0.4915 H       
  34 H34            2.1163     1.0405     1.6291 H       
  35 H35           -3.3828    -2.2046     2.0048 H       
  36 H36           -5.5307    -1.8821     3.2010 H       
  37 H37           -5.1529    -0.4766     2.1762 H       
  38 H38           -6.3655    -1.6660     1.6438 H       
  39 H39           -3.9227    -4.3938     0.9731 H       
  40 H40           -4.8123    -4.1696     2.4985 H       
  41 H41           -5.6471    -3.9535     0.9413 H       
  42 H42            0.6866     3.4208    -1.6339 H       
  43 H43            2.8071     4.6682    -1.6409 H       
  44 H44            4.2291     2.3007     1.6104 H       
  45 H45            5.7468     3.6808     0.3217 H       
  46 H46            5.1544     4.6671    -1.0365 H       
  47 H47            5.0303     7.2776    -0.2525 H       
  48 H48            3.3454     6.8069     0.1396 H       
  49 H49            6.1852     7.4075     4.2442 H       
  50 H50            4.4701     7.8434     4.4354 H       
  51 H51            5.0019     6.1712     4.7338 H       
@<TRIPOS>BOND
   1    1    2 ar
   2    1   11 1
   3    1    6 ar
   4    2    3 ar
   5    2   30 1
   6    3    4 ar
   7    3   31 1
   8    4    5 ar
   9    4    7 1
  10    5    6 ar
  11    5    9 1
  12    6   12 1
  13    7    8 1
  14    7   10 1
  15    8    9 2
  16   10   14 1
  17   10   32 1
  18   10   33 1
  19   11   13 ar
  20   11   17 ar
  21   13   20 ar
  22   13   34 1
  23   14   15 1
  24   14   16 1
  25   14   35 1
  26   15   36 1
  27   15   37 1
  28   15   38 1
  29   16   39 1
  30   16   40 1
  31   16   41 1
  32   17   18 ar
  33   17   42 1
  34   18   19 ar
  35   18   43 1
  36   19   20 ar
  37   19   21 1
  38   20   44 1
  39   21   22 1
  40   21   45 1
  41   21   46 1
  42   22   23 am
  43   22   26 1
  44   23   24 am
  45   23   28 2
  46   24   25 am
  47   24   27 1
  48   25   26 1
  49   25   29 2
  50   26   47 1
  51   26   48 1
  52   27   49 1
  53   27   50 1
  54   27   51 1

#	End of record

