#	Name: ASD01885432
#	Creating user name:	WinNT
#	Creation time:	15. 06. 2019 19:49

#	Modifying user name:	WinNT
#	Modification time:	15. 06. 2019 19:49

#	Program:	/corina/corina34_cracker 3.40 0067  02.08.2006

@<TRIPOS>MOLECULE
ASD01885432
  41   43    0    0    0
SMALL
NO_CHARGES


@<TRIPOS>ATOM
   1 C1            -0.0388     1.4176     0.0071 C.ar    
   2 C2            -0.0161     0.0213     0.0397 C.ar    
   3 N3            -1.1304    -0.7500     0.0522 N.2     
   4 C4            -2.1917    -0.5667    -0.6472 C.2     
   5 C5            -2.3336     0.6072    -1.5801 C.3     
   6 C6            -2.2857     1.8697    -0.7572 C.2     
   7 N7            -1.2069     2.1687    -0.0337 N.am    
   8 C8             1.1618     2.1205     0.0092 C.ar    
   9 C9             2.3805     1.4403     0.0380 C.ar    
  10 C10            2.3932     0.0392     0.0651 C.ar    
  11 C11            1.2213    -0.6512     0.0659 C.ar    
  12 C12           -3.2991    -1.5300    -0.5343 C.ar    
  13 O13           -3.2378     2.6211    -0.7550 O.2     
  14 C14           -3.1343    -2.7049     0.2073 C.ar    
  15 C15           -4.1721    -3.6088     0.3132 C.ar    
  16 C16           -5.3790    -3.3612    -0.3104 C.ar    
  17 C17           -5.5589    -2.1917    -1.0545 C.ar    
  18 C18           -4.5188    -1.2713    -1.1624 C.ar    
  19 C19           -6.8116    -1.9376    -1.7001 C.1     
  20 N20           -7.8054    -1.7361    -2.2122 N.1     
  21 C21            3.6440     2.1898     0.0396 C.2     
  22 O22            6.0275     3.4681     0.0450 O.2     
  23 C23            4.8219     1.5284     0.0675 C.2     
  24 C24            6.0417     2.2520     0.0690 C.2     
  25 O25            7.2180     1.5915     0.0969 O.3     
  26 C26            8.4071     2.3839     0.0966 C.3     
  27 H27           -1.5152     0.6060    -2.3001 H       
  28 H28           -3.2867     0.5464    -2.1056 H       
  29 H29           -1.2400     2.9725     0.5083 H       
  30 H30            1.1509     3.2002    -0.0120 H       
  31 H31            3.3333    -0.4922     0.0848 H       
  32 H32            1.2398    -1.7308     0.0866 H       
  33 H33           -2.1931    -2.9051     0.6977 H       
  34 H34           -4.0393    -4.5145     0.8863 H       
  35 H35           -6.1861    -4.0735    -0.2233 H       
  36 H36           -4.6527    -0.3659    -1.7357 H       
  37 H37            3.6313     3.2695     0.0183 H       
  38 H38            4.8345     0.4486     0.0887 H       
  39 H39            8.4360     2.9955    -0.8052 H       
  40 H40            8.4133     3.0302     0.9743 H       
  41 H41            9.2792     1.7304     0.1205 H       
@<TRIPOS>BOND
   1    1    2 ar
   2    1    8 ar
   3    1    7 1
   4    2    3 1
   5    2   11 ar
   6    3    4 2
   7    4    5 1
   8    4   12 1
   9    5    6 1
  10    5   27 1
  11    5   28 1
  12    6    7 am
  13    6   13 2
  14    7   29 1
  15    8    9 ar
  16    8   30 1
  17    9   10 ar
  18    9   21 1
  19   10   11 ar
  20   10   31 1
  21   11   32 1
  22   12   14 ar
  23   12   18 ar
  24   14   15 ar
  25   14   33 1
  26   15   16 ar
  27   15   34 1
  28   16   17 ar
  29   16   35 1
  30   17   18 ar
  31   17   19 1
  32   18   36 1
  33   19   20 3
  34   21   23 2
  35   21   37 1
  36   22   24 2
  37   23   24 1
  38   23   38 1
  39   24   25 1
  40   25   26 1
  41   26   39 1
  42   26   40 1
  43   26   41 1

#	End of record

