#	Name: ASD00131002
#	Creating user name:	WinNT
#	Creation time:	15. 06. 2019 18:31

#	Modifying user name:	WinNT
#	Modification time:	15. 06. 2019 18:31

#	Program:	/corina/corina34_cracker 3.40 0067  02.08.2006

@<TRIPOS>MOLECULE
ASD00131002
  62   66    0    0    0
SMALL
NO_CHARGES


@<TRIPOS>ATOM
   1 N1             1.4352     1.3523    -1.2709 N.am    
   2 C2             1.5374     0.0126    -1.2497 C.2     
   3 C3             1.3654    -0.7337    -0.0040 C.2     
   4 C4             1.0918    -0.0340     1.1736 C.2     
   5 C5             0.9891     1.4274     1.1055 C.ar    
   6 C6             0.7161     2.1766     2.2558 C.ar    
   7 C7             0.6234     3.5368     2.1745 C.ar    
   8 C8             0.7979     4.1832     0.9585 C.ar    
   9 C9             1.0673     3.4655    -0.1864 C.ar    
  10 C10            1.1660     2.0777    -0.1285 C.ar    
  11 C11            1.4781    -2.1974     0.0086 C.2     
  12 O12            2.5738    -2.7237    -0.0456 O.2     
  13 N13            0.3679    -2.9582     0.0803 N.am    
  14 O14            1.7763    -0.5882    -2.2821 O.2     
  15 O15            0.9259    -0.6858     2.3434 O.3     
  16 C16            1.6202     2.0618    -2.5392 C.3     
  17 C17            2.8162     3.0094    -2.6506 C.3     
  18 C18            2.8266     1.6735    -3.3964 C.3     
  19 N19           -0.5371    -7.0420    -0.4254 N.3     
  20 C20           -0.6744    -6.5004     0.9326 C.3     
  21 C21           -0.7744    -4.9747     0.8670 C.3     
  22 C22            0.4838    -4.4138     0.1985 C.3     
  23 C23            0.6297    -5.0304    -1.1954 C.3     
  24 C24            0.6890    -6.5545    -1.0700 C.3     
  25 C25           -0.5773    -8.5104    -0.4131 C.3     
  26 C26           -0.7847   -11.0737    -3.2772 C.3     
  27 C27           -0.5993   -10.5593    -1.8472 C.3     
  28 C28           -0.6828    -9.0298    -1.8483 C.3     
  29 C29           -2.0252    -8.6031    -2.4502 C.3     
  30 C30           -2.1555    -9.1931    -3.8569 C.3     
  31 O31           -2.0382   -10.6157    -3.7880 O.3     
  32 H32            0.5789     1.6804     3.2052 H       
  33 H33            0.4124     4.1137     3.0627 H       
  34 H34            0.7214     5.2593     0.9093 H       
  35 H35            1.2009     3.9785    -1.1273 H       
  36 H36           -0.5078    -2.5420     0.0535 H       
  37 H37            0.9356    -1.6493     2.2616 H       
  38 H38            0.7041     2.3445    -3.0578 H       
  39 H39            2.6871     3.9154    -3.2428 H       
  40 H40            3.4654     3.1050    -1.7803 H       
  41 H41            3.4826     0.8902    -3.0166 H       
  42 H42            2.7043     1.7006    -4.4792 H       
  43 H43           -1.5752    -6.9038     1.3951 H       
  44 H44            0.1956    -6.7821     1.5257 H       
  45 H45           -1.6521    -4.6922     0.2856 H       
  46 H46           -0.8607    -4.5719     1.8762 H       
  47 H47            1.3577    -4.6619     0.8009 H       
  48 H48           -0.2259    -4.7489    -1.8093 H       
  49 H49            1.5466    -4.6675    -1.6597 H       
  50 H50            1.5527    -6.8360    -0.4676 H       
  51 H51            0.7785    -6.9973    -2.0620 H       
  52 H52            0.3333    -8.8949     0.0464 H       
  53 H53           -1.4424    -8.8454     0.1591 H       
  54 H54            0.0230   -10.6988    -3.9059 H       
  55 H55           -0.7689   -12.1636    -3.2763 H       
  56 H56           -1.3837   -10.9664    -1.2091 H       
  57 H57            0.3754   -10.8706    -1.4716 H       
  58 H58            0.1324    -8.6205    -2.4451 H       
  59 H59           -2.8384    -8.9708    -1.8243 H       
  60 H60           -2.0703    -7.5155    -2.5058 H       
  61 H61           -3.1272    -8.9283    -4.2736 H       
  62 H62           -1.3658    -8.7936    -4.4932 H       
@<TRIPOS>BOND
   1    1    2 am
   2    1   10 1
   3    1   16 1
   4    2    3 1
   5    2   14 2
   6    3    4 2
   7    3   11 1
   8    4    5 1
   9    4   15 1
  10    5    6 ar
  11    5   10 ar
  12    6    7 ar
  13    6   32 1
  14    7    8 ar
  15    7   33 1
  16    8    9 ar
  17    8   34 1
  18    9   10 ar
  19    9   35 1
  20   11   12 2
  21   11   13 am
  22   13   22 1
  23   13   36 1
  24   15   37 1
  25   16   17 1
  26   16   18 1
  27   16   38 1
  28   17   18 1
  29   17   39 1
  30   17   40 1
  31   18   41 1
  32   18   42 1
  33   19   20 1
  34   19   24 1
  35   19   25 1
  36   20   21 1
  37   20   43 1
  38   20   44 1
  39   21   22 1
  40   21   45 1
  41   21   46 1
  42   22   23 1
  43   22   47 1
  44   23   24 1
  45   23   48 1
  46   23   49 1
  47   24   50 1
  48   24   51 1
  49   25   28 1
  50   25   52 1
  51   25   53 1
  52   26   27 1
  53   26   31 1
  54   26   54 1
  55   26   55 1
  56   27   28 1
  57   27   56 1
  58   27   57 1
  59   28   29 1
  60   28   58 1
  61   29   30 1
  62   29   59 1
  63   29   60 1
  64   30   31 1
  65   30   61 1
  66   30   62 1

#	End of record

