#	Name: ASD00061044
#	Creating user name:	WinNT
#	Creation time:	15. 06. 2019 18:29

#	Modifying user name:	WinNT
#	Modification time:	15. 06. 2019 18:29

#	Program:	/corina/corina34_cracker 3.40 0067  02.08.2006

@<TRIPOS>MOLECULE
ASD00061044
  49   52    0    0    0
SMALL
NO_CHARGES


@<TRIPOS>ATOM
   1 C1            -1.6637     1.1276     0.3116 C.ar    
   2 C2            -1.0890    -0.2202     0.1941 C.2     
   3 C3            -1.9956    -1.4197     0.0921 C.3     
   4 O4             0.1148    -0.3670     0.1793 O.2     
   5 C5            -1.1566    -2.6725    -0.1675 C.3     
   6 C6            -2.0467    -3.8882    -0.1375 C.ar    
   7 C7            -1.8133    -4.8931     0.7826 C.ar    
   8 C8            -2.6297    -6.0083     0.8101 C.ar    
   9 C9            -3.6798    -6.1184    -0.0821 C.ar    
  10 C10           -3.9137    -5.1130    -1.0016 C.ar    
  11 C11           -3.1000    -3.9958    -1.0262 C.ar    
  12 C12           -0.8221     2.2373     0.4060 C.ar    
  13 C13           -1.3679     3.5082     0.5168 C.ar    
  14 C14           -2.7646     3.6598     0.5324 C.ar    
  15 C15           -3.5959     2.5425     0.4374 C.ar    
  16 C16           -3.0562     1.2956     0.3228 C.ar    
  17 N17           -0.7919     4.7624     0.6241 N.pl3   
  18 C18           -1.7719     5.7335     0.7097 C.ar    
  19 C19           -3.0254     5.1042     0.6577 C.ar    
  20 C20           -1.7101     7.1191     0.8289 C.ar    
  21 C21           -2.8711     7.8582     0.8949 C.ar    
  22 C22           -4.1090     7.2348     0.8433 C.ar    
  23 C23           -4.1917     5.8648     0.7255 C.ar    
  24 C24           -0.4884    -2.5635    -1.5395 C.3     
  25 C25            0.2512    -3.8414    -1.8410 C.2     
  26 O26           -0.0039    -4.4648    -2.8441 O.2     
  27 O27            1.1934    -4.2871    -0.9952 O.3     
  28 C28           -1.5401    -2.3311    -2.5935 C.2     
  29 O29           -1.9554    -3.2584    -3.2473 O.2     
  30 O30           -2.0155    -1.0939    -2.8060 O.3     
  31 H31           -2.5472    -1.5386     1.0248 H       
  32 H32           -2.6975    -1.2758    -0.7293 H       
  33 H33           -0.3913    -2.7634     0.6033 H       
  34 H34           -0.9929    -4.8072     1.4797 H       
  35 H35           -2.4469    -6.7938     1.5285 H       
  36 H36           -4.3172    -6.9900    -0.0611 H       
  37 H37           -4.7339    -5.1991    -1.6989 H       
  38 H38           -3.2827    -3.2104    -1.7446 H       
  39 H39            0.2499     2.1070     0.3931 H       
  40 H40           -4.6687     2.6663     0.4504 H       
  41 H41           -3.7030     0.4338     0.2495 H       
  42 H42            0.1625     4.9351     0.6373 H       
  43 H43           -0.7516     7.6150     0.8700 H       
  44 H44           -2.8166     8.9328     0.9881 H       
  45 H45           -5.0115     7.8256     0.8964 H       
  46 H46           -5.1568     5.3816     0.6853 H       
  47 H47            0.2135    -1.7295    -1.5365 H       
  48 H48            1.5877    -5.1480    -1.1914 H       
  49 H49           -2.6891    -0.9944    -3.4926 H       
@<TRIPOS>BOND
   1    1    2 1
   2    1   12 ar
   3    1   16 ar
   4    2    3 1
   5    2    4 2
   6    3    5 1
   7    3   31 1
   8    3   32 1
   9    5    6 1
  10    5   24 1
  11    5   33 1
  12    6    7 ar
  13    6   11 ar
  14    7    8 ar
  15    7   34 1
  16    8    9 ar
  17    8   35 1
  18    9   10 ar
  19    9   36 1
  20   10   11 ar
  21   10   37 1
  22   11   38 1
  23   12   13 ar
  24   12   39 1
  25   13   14 ar
  26   13   17 1
  27   14   15 ar
  28   14   19 1
  29   15   16 ar
  30   15   40 1
  31   16   41 1
  32   17   18 1
  33   17   42 1
  34   18   19 ar
  35   18   20 ar
  36   19   23 ar
  37   20   21 ar
  38   20   43 1
  39   21   22 ar
  40   21   44 1
  41   22   23 ar
  42   22   45 1
  43   23   46 1
  44   24   25 1
  45   24   28 1
  46   24   47 1
  47   25   26 2
  48   25   27 1
  49   27   48 1
  50   28   29 2
  51   28   30 1
  52   30   49 1

#	End of record

