#	Name: ASD01815180
#	Creating user name:	WinNT
#	Creation time:	15. 06. 2019 19:33

#	Modifying user name:	WinNT
#	Modification time:	15. 06. 2019 19:33

#	Program:	/corina/corina34_cracker 3.40 0067  02.08.2006

@<TRIPOS>MOLECULE
ASD01815180
  48   52    0    0    0
SMALL
NO_CHARGES


@<TRIPOS>ATOM
   1 C1            -0.0167     1.3820     0.0096 C.ar    
   2 C2             0.0021    -0.0041     0.0020 C.ar    
   3 C3             1.1959    -0.6932    -0.0127 C.ar    
   4 C4             2.4016     0.0019    -0.0200 C.ar    
   5 C5             2.3831     1.4075    -0.0128 C.ar    
   6 C6             1.1665     2.0939     0.0022 C.ar    
   7 N7             3.6010    -0.6771    -0.0337 N.pl3   
   8 C8             4.7870    -0.0549    -0.0404 C.2     
   9 C9             4.8957     1.3208    -0.0340 C.2     
  10 C10            3.6667     2.1313    -0.0207 C.2     
  11 C11            3.5775    -2.1419    -0.0409 C.3     
  12 H12            1.1956    -1.7731    -0.0181 H       
  13 O13            3.7091     3.3491    -0.0150 O.2     
  14 C14            6.2161     1.9660    -0.0412 C.2     
  15 O15            6.3092     3.3109    -0.0348 O.3     
  16 O16            7.2244     1.2870    -0.0529 O.2     
  17 C17            3.5572    -2.6371    -1.4640 C.ar    
  18 N18            2.4059    -2.7375    -2.0999 N.ar    
  19 C19            2.3334    -3.1641    -3.3439 C.ar    
  20 C20            3.4871    -3.5283    -4.0373 C.ar    
  21 C21            4.7236    -3.4328    -3.3897 C.ar    
  22 C22            4.7470    -2.9736    -2.0846 C.ar    
  23 F23            1.1476     3.4448     0.0091 F       
  24 C24            3.4048    -4.0088    -5.4358 C.ar    
  25 C25            4.2146    -3.4715    -6.4274 C.ar    
  26 C26            4.1118    -3.9453    -7.7302 C.ar    
  27 N27            3.2668    -4.8932    -8.0580 N.ar    
  28 C28            2.4564    -5.4568    -7.1561 C.ar    
  29 C29            2.5007    -5.0368    -5.8049 C.ar    
  30 C30            1.5570    -6.4724    -7.5260 C.ar    
  31 C31            0.7436    -7.0291    -6.5874 C.ar    
  32 C32            0.7858    -6.6086    -5.2600 C.ar    
  33 C33            1.6495    -5.6318    -4.8643 C.ar    
  34 H34           -0.9604     1.9071     0.0170 H       
  35 H35           -0.9295    -0.5505     0.0080 H       
  36 H36            5.6884    -0.6497    -0.0508 H       
  37 H37            4.4660    -2.5220     0.4634 H       
  38 H38            2.6863    -2.4936     0.4789 H       
  39 H39            7.1990     3.6894    -0.0400 H       
  40 H40            1.3720    -3.2327    -3.8311 H       
  41 H41            5.6370    -3.7070    -3.8968 H       
  42 H42            5.6832    -2.8868    -1.5533 H       
  43 H43            4.9200    -2.6895    -6.1880 H       
  44 H44            4.7459    -3.5205    -8.4943 H       
  45 H45            1.5115    -6.8092    -8.5511 H       
  46 H46            0.0545    -7.8088    -6.8763 H       
  47 H47            0.1293    -7.0660    -4.5346 H       
  48 H48            1.6736    -5.3137    -3.8325 H       
@<TRIPOS>BOND
   1    1    2 ar
   2    1    6 ar
   3    1   34 1
   4    2    3 ar
   5    2   35 1
   6    3    4 ar
   7    3   12 1
   8    4    5 ar
   9    4    7 1
  10    5    6 ar
  11    5   10 1
  12    6   23 1
  13    7    8 1
  14    7   11 1
  15    8    9 2
  16    8   36 1
  17    9   10 1
  18    9   14 1
  19   10   13 2
  20   11   17 1
  21   11   37 1
  22   11   38 1
  23   14   15 1
  24   14   16 2
  25   15   39 1
  26   17   18 ar
  27   17   22 ar
  28   18   19 ar
  29   19   20 ar
  30   19   40 1
  31   20   21 ar
  32   20   24 1
  33   21   22 ar
  34   21   41 1
  35   22   42 1
  36   24   25 ar
  37   24   29 ar
  38   25   26 ar
  39   25   43 1
  40   26   27 ar
  41   26   44 1
  42   27   28 ar
  43   28   29 ar
  44   28   30 ar
  45   29   33 ar
  46   30   31 ar
  47   30   45 1
  48   31   32 ar
  49   31   46 1
  50   32   33 ar
  51   32   47 1
  52   33   48 1

#	End of record

