#	Name: ASD00192098
#	Creating user name:	WinNT
#	Creation time:	15. 06. 2019 18:33

#	Modifying user name:	WinNT
#	Modification time:	15. 06. 2019 18:33

#	Program:	/corina/corina34_cracker 3.40 0067  02.08.2006

@<TRIPOS>MOLECULE
ASD00192098
  59   64    0    0    0
SMALL
NO_CHARGES


@<TRIPOS>ATOM
   1 C1            -0.2035     1.5354     0.7046 C.ar    
   2 C2            -0.1940     0.1539     0.5489 C.ar    
   3 C3             0.9677    -0.5173     0.3070 C.ar    
   4 C4             2.1760     0.1901     0.2124 C.ar    
   5 C5             2.1601     1.5959     0.3717 C.ar    
   6 C6             0.9542     2.2544     0.6186 C.ar    
   7 N7             3.3314    -0.4487    -0.0245 N.ar    
   8 C8             4.4834     0.1788    -0.1196 C.ar    
   9 C9             4.5825     1.5722     0.0223 C.ar    
  10 C10            3.4275     2.3210     0.2705 C.ar    
  11 N11            5.6173     2.4803    -0.0241 N.pl3   
  12 C12            5.0870     3.7052     0.1890 C.2     
  13 N13            3.7972     3.6069     0.3618 N.2     
  14 N14            5.6331    -0.5569    -0.3665 N.pl3   
  15 C15            5.5777    -1.9537    -0.3896 C.ar    
  16 C16            6.4013    -2.6684    -1.2500 C.ar    
  17 C17            4.7030    -2.6292     0.4516 C.ar    
  18 C18            4.6498    -4.0093     0.4271 C.ar    
  19 C19            5.4671    -4.7194    -0.4341 C.ar    
  20 C20            6.3443    -4.0490    -1.2707 C.ar    
  21 Cl21           5.3978    -6.4538    -0.4617 Cl      
  22 Cl22           7.3679    -4.9434    -2.3505 Cl      
  23 C23            5.8689     4.9930     0.2217 C.3     
  24 C24            7.2480     4.7384     0.8381 C.3     
  25 N25            8.0429     5.9704     0.7439 N.am    
  26 C26            8.1968     6.6133    -0.5683 C.3     
  27 C27            6.8070     6.8470    -1.1688 C.3     
  28 C28            6.0415     5.5222    -1.2038 C.3     
  29 C29            8.6196     6.5011     1.8404 C.2     
  30 C30           11.1909     9.8619     1.4723 C.ar    
  31 C31           10.4068     9.7152     2.6028 C.ar    
  32 C32            9.5697     8.6259     2.7287 C.ar    
  33 C33            9.5145     7.6709     1.7122 C.ar    
  34 C34           10.3081     7.8250     0.5744 C.ar    
  35 C35           11.1413     8.9187     0.4613 C.ar    
  36 O36            8.4040     6.0178     2.9347 O.2     
  37 H37           -1.1369     2.0458     0.8911 H       
  38 H38           -1.1208    -0.3958     0.6210 H       
  39 H39            0.9581    -1.5908     0.1888 H       
  40 H40            0.9370     3.3273     0.7412 H       
  41 H41            6.5531     2.2782    -0.1804 H       
  42 H42            6.4755    -0.1022    -0.5231 H       
  43 H43            7.0852    -2.1458    -1.9023 H       
  44 H44            4.0651    -2.0758     1.1248 H       
  45 H45            3.9697    -4.5346     1.0813 H       
  46 H46            5.3328     5.7289     0.8211 H       
  47 H47            7.1340     4.4562     1.8847 H       
  48 H48            7.7491     3.9377     0.2941 H       
  49 H49            8.7088     7.5682    -0.4495 H       
  50 H50            8.7753     5.9655    -1.2269 H       
  51 H51            6.2623     7.5658    -0.5567 H       
  52 H52            6.9092     7.2350    -2.1823 H       
  53 H53            6.5989     4.7962    -1.7957 H       
  54 H54            5.0613     5.6810    -1.6534 H       
  55 H55           11.8413    10.7188     1.3767 H       
  56 H56           10.4505    10.4548     3.3886 H       
  57 H57            8.9584     8.5123     3.6118 H       
  58 H58           10.2703     7.0895    -0.2155 H       
  59 H59           11.7559     9.0392    -0.4186 H       
@<TRIPOS>BOND
   1    1    2 ar
   2    1    6 ar
   3    1   37 1
   4    2    3 ar
   5    2   38 1
   6    3    4 ar
   7    3   39 1
   8    4    5 ar
   9    4    7 ar
  10    5    6 ar
  11    5   10 ar
  12    6   40 1
  13    7    8 ar
  14    8    9 ar
  15    8   14 1
  16    9   10 ar
  17    9   11 1
  18   10   13 1
  19   11   12 1
  20   11   41 1
  21   12   13 2
  22   12   23 1
  23   14   15 1
  24   14   42 1
  25   15   16 ar
  26   15   17 ar
  27   16   20 ar
  28   16   43 1
  29   17   18 ar
  30   17   44 1
  31   18   19 ar
  32   18   45 1
  33   19   20 ar
  34   19   21 1
  35   20   22 1
  36   23   24 1
  37   23   28 1
  38   23   46 1
  39   24   25 1
  40   24   47 1
  41   24   48 1
  42   25   26 1
  43   25   29 am
  44   26   27 1
  45   26   49 1
  46   26   50 1
  47   27   28 1
  48   27   51 1
  49   27   52 1
  50   28   53 1
  51   28   54 1
  52   29   36 2
  53   29   33 1
  54   30   31 ar
  55   30   35 ar
  56   30   55 1
  57   31   32 ar
  58   31   56 1
  59   32   33 ar
  60   32   57 1
  61   33   34 ar
  62   34   35 ar
  63   34   58 1
  64   35   59 1

#	End of record

