#	Name: ASD03430820
#	Creating user name:	WinNT
#	Creation time:	15. 06. 2019 20:41

#	Modifying user name:	WinNT
#	Modification time:	15. 06. 2019 20:41

#	Program:	/corina/corina34_cracker 3.40 0067  02.08.2006

@<TRIPOS>MOLECULE
ASD03430820
  45   50    0    0    0
SMALL
NO_CHARGES


@<TRIPOS>ATOM
   1 C1            -0.0178     1.4608     0.0101 C.3     
   2 O2            -0.5988    -4.2900     1.4259 O.3     
   3 C3             0.7435    -4.1794     1.6373 C.ar    
   4 C4             1.2233    -2.9500     1.1929 C.ar    
   5 C5             0.0375    -2.1929     0.6597 C.3     
   6 C6            -1.1587    -2.9803     1.2126 C.3     
   7 O7             3.9982    -5.5141     2.8515 O.3     
   8 C8             2.9798    -4.7784     2.3257 C.ar    
   9 C9             3.4364    -3.5516     1.8591 C.ar    
  10 C10            4.9322    -3.5108     2.1034 C.3     
  11 C11            5.2524    -5.0003     2.3726 C.3     
  12 C12            2.5636    -2.6444     1.3003 C.ar    
  13 C13            1.6298    -5.0862     2.2060 C.ar    
  14 N14            0.0021    -0.0041     0.0020 N.am    
  15 C15            0.0225    -0.7624     1.1162 C.2     
  16 C16            0.0226    -2.1324    -0.8387 C.ar    
  17 C17            0.0258    -3.0881    -1.8294 C.ar    
  18 C18            0.0082    -2.7077    -3.1598 C.ar    
  19 C19           -0.0130    -1.3656    -3.4915 C.ar    
  20 C20           -0.0171    -0.4038    -2.5024 C.ar    
  21 C21            0.0013    -0.7775    -1.1612 C.ar    
  22 O22            0.0277    -0.3668     2.2628 O.2     
  23 C23            1.4176     1.9904    -0.0008 C.3     
  24 C24            1.5148     3.5276     0.0065 C.3     
  25 C25            2.6340     3.3395     1.0480 C.3     
  26 O26            2.0240     2.0587     1.3055 O.3     
  27 H27           -0.5450     1.8219    -0.8730 H       
  28 H28           -0.5280     1.8123     0.9069 H       
  29 H29           -1.9672    -3.0193     0.4825 H       
  30 H30           -1.5047    -2.5496     2.1522 H       
  31 H31            5.4614    -3.1519     1.2207 H       
  32 H32            5.1683    -2.8981     2.9734 H       
  33 H33            6.0257    -5.0973     3.1347 H       
  34 H34            5.5500    -5.5036     1.4528 H       
  35 H35            2.9295    -1.6922     0.9455 H       
  36 H36            1.2658    -6.0398     2.5589 H       
  37 H37            0.0424    -4.1359    -1.5681 H       
  38 H38            0.0107    -3.4574    -3.9372 H       
  39 H39           -0.0268    -1.0688    -4.5298 H       
  40 H40           -0.0333     0.6426    -2.7693 H       
  41 H41            2.0428     1.5126    -0.7551 H       
  42 H42            1.8583     3.9514    -0.9371 H       
  43 H43            0.6268     4.0229     0.3993 H       
  44 H44            3.6323     3.2735     0.6154 H       
  45 H45            2.5761     4.0322     1.8875 H       
@<TRIPOS>BOND
   1    1   14 1
   2    1   23 1
   3    1   27 1
   4    1   28 1
   5    2    3 1
   6    2    6 1
   7    3    4 ar
   8    3   13 ar
   9    4    5 1
  10    4   12 ar
  11    5    6 1
  12    5   15 1
  13    5   16 1
  14    6   29 1
  15    6   30 1
  16    7    8 1
  17    7   11 1
  18    8    9 ar
  19    8   13 ar
  20    9   10 1
  21    9   12 ar
  22   10   11 1
  23   10   31 1
  24   10   32 1
  25   11   33 1
  26   11   34 1
  27   12   35 1
  28   13   36 1
  29   14   15 am
  30   14   21 1
  31   15   22 2
  32   16   17 ar
  33   16   21 ar
  34   17   18 ar
  35   17   37 1
  36   18   19 ar
  37   18   38 1
  38   19   20 ar
  39   19   39 1
  40   20   21 ar
  41   20   40 1
  42   23   24 1
  43   23   26 1
  44   23   41 1
  45   24   25 1
  46   24   42 1
  47   24   43 1
  48   25   26 1
  49   25   44 1
  50   25   45 1

#	End of record

