#	Name: ASD04550027
#	Creating user name:	WinNT
#	Creation time:	15. 06. 2019 20:49

#	Modifying user name:	WinNT
#	Modification time:	15. 06. 2019 20:49

#	Program:	/corina/corina34_cracker 3.40 0067  02.08.2006

@<TRIPOS>MOLECULE
ASD04550027
  39   40    0    0    0
SMALL
NO_CHARGES


@<TRIPOS>ATOM
   1 C1            -0.0169     1.3941     0.0097 C.ar    
   2 C2             0.0021    -0.0041     0.0020 C.ar    
   3 C3            -1.1849    -0.7061     0.0101 C.ar    
   4 C4            -2.3925    -0.0305     0.0257 C.ar    
   5 C5            -2.4196     1.3534     0.0329 C.ar    
   6 C6            -1.2415     2.0696     0.0309 C.ar    
   7 C7            -3.7402     2.0792     0.0495 C.3     
   8 C8            -4.5467     1.6990    -1.1939 C.3     
   9 C9             1.2452     2.1510     0.0017 C.2     
  10 C10            2.5625     1.4193    -0.0148 C.3     
  11 O11            1.2251     3.3633     0.0084 O.2     
  12 C12            3.6373     2.3178    -0.6299 C.3     
  13 C13            4.9748     1.5749    -0.6466 C.3     
  14 C14            5.3733     1.2096     0.7847 C.3     
  15 C15            4.2985     0.3111     1.3998 C.3     
  16 C16            2.9610     1.0540     1.4165 C.3     
  17 C17           -4.5106     1.6923     1.2856 C.2     
  18 O18           -4.0359     0.9077     2.0724 O.2     
  19 O19           -5.7241     2.2192     1.5125 O.3     
  20 H20            0.9438    -0.5327    -0.0105 H       
  21 H21           -1.1719    -1.7860     0.0038 H       
  22 H22           -3.3187    -0.5860     0.0319 H       
  23 H23           -1.2643     3.1493     0.0365 H       
  24 H24           -3.5637     3.1548     0.0532 H       
  25 H25           -4.7232     0.6233    -1.1976 H       
  26 H26           -5.5019     2.2239    -1.1819 H       
  27 H27           -3.9895     1.9788    -2.0880 H       
  28 H28            2.4657     0.5101    -0.6082 H       
  29 H29            3.3535     2.5780    -1.6496 H       
  30 H30            3.7341     3.2269    -0.0365 H       
  31 H31            4.8780     0.6657    -1.2401 H       
  32 H32            5.7405     2.2150    -1.0849 H       
  33 H33            6.3261     0.6804     0.7727 H       
  34 H34            5.4701     2.1188     1.3781 H       
  35 H35            4.2017    -0.5980     0.8063 H       
  36 H36            4.5823     0.0509     2.4195 H       
  37 H37            3.0578     1.9632     2.0100 H       
  38 H38            2.1953     0.4139     1.8548 H       
  39 H39           -6.1798     1.9409     2.3187 H       
@<TRIPOS>BOND
   1    1    2 ar
   2    1    9 1
   3    1    6 ar
   4    2    3 ar
   5    2   20 1
   6    3    4 ar
   7    3   21 1
   8    4    5 ar
   9    4   22 1
  10    5    6 ar
  11    5    7 1
  12    6   23 1
  13    7    8 1
  14    7   17 1
  15    7   24 1
  16    8   25 1
  17    8   26 1
  18    8   27 1
  19    9   10 1
  20    9   11 2
  21   10   12 1
  22   10   16 1
  23   10   28 1
  24   12   13 1
  25   12   29 1
  26   12   30 1
  27   13   14 1
  28   13   31 1
  29   13   32 1
  30   14   15 1
  31   14   33 1
  32   14   34 1
  33   15   16 1
  34   15   35 1
  35   15   36 1
  36   16   37 1
  37   16   38 1
  38   17   18 2
  39   17   19 1
  40   19   39 1

#	End of record

