#	Name: ASD03092580
#	Creating user name:	WinNT
#	Creation time:	15. 06. 2019 20:32

#	Modifying user name:	WinNT
#	Modification time:	15. 06. 2019 20:32

#	Program:	/corina/corina34_cracker 3.40 0067  02.08.2006

@<TRIPOS>MOLECULE
ASD03092580
  38   40    0    0    0
SMALL
NO_CHARGES


@<TRIPOS>ATOM
   1 O1            -0.0143     1.2049     0.0087 O.3     
   2 N2             0.0021    -0.0041     0.0020 N.2     
   3 C3             1.2276    -0.4662    -0.0122 C.2     
   4 C4             2.0795     0.6732    -0.0142 C.2     
   5 C5             1.2227     1.7204    -0.0004 C.2     
   6 C6             1.6433    -1.8900    -0.0238 C.2     
   7 O7             2.8235    -2.1782    -0.0361 O.2     
   8 N8             0.7118    -2.8641    -0.0206 N.am    
   9 C9             1.1223    -4.2703    -0.0321 C.3     
  10 N10           -3.4446    -7.5578    -0.2817 N.pl3   
  11 C11           -3.5939    -7.6487    -1.6388 C.2     
  12 C12           -2.6296    -6.9456    -2.2534 C.2     
  13 C13           -1.7945    -6.3563    -1.2040 C.ar    
  14 C14           -0.6615    -5.5401    -1.2092 C.ar    
  15 C15           -0.1007    -5.1507    -0.0258 C.ar    
  16 C16           -0.6483    -5.5600     1.1826 C.ar    
  17 C17           -1.7653    -6.3656     1.2107 C.ar    
  18 C18           -2.3529    -6.7741     0.0176 C.ar    
  19 C19           -4.6798    -8.4238    -2.3397 C.3     
  20 C20            1.5883     3.1824     0.0035 C.3     
  21 C21            1.6979     3.6846    -1.4375 C.3     
  22 H22            3.1592     0.6969    -0.0238 H       
  23 H23           -0.2305    -2.6340    -0.0107 H       
  24 H24            1.7092    -4.4702    -0.9286 H       
  25 H25            1.7255    -4.4799     0.8513 H       
  26 H26           -4.0240    -7.9793     0.3721 H       
  27 H27           -2.4950    -6.8354    -3.3193 H       
  28 H28           -0.2295    -5.2185    -2.1453 H       
  29 H29           -0.1937    -5.2440     2.1098 H       
  30 H30           -2.1836    -6.6790     2.1558 H       
  31 H31           -5.5428    -7.7773    -2.4987 H       
  32 H32           -4.3097    -8.7790    -3.3014 H       
  33 H33           -4.9722    -9.2757    -1.7258 H       
  34 H34            0.8181     3.7481     0.5279 H       
  35 H35            2.5448     3.3163     0.5087 H       
  36 H36            2.4680     3.1188    -1.9619 H       
  37 H37            0.7413     3.5506    -1.9427 H       
  38 H38            1.9623     4.7420    -1.4347 H       
@<TRIPOS>BOND
   1    1    2 1
   2    1    5 1
   3    2    3 2
   4    3    4 1
   5    3    6 1
   6    4    5 2
   7    4   22 1
   8    5   20 1
   9    6    7 2
  10    6    8 am
  11    8    9 1
  12    8   23 1
  13    9   15 1
  14    9   24 1
  15    9   25 1
  16   10   11 1
  17   10   18 1
  18   10   26 1
  19   11   12 2
  20   11   19 1
  21   12   13 1
  22   12   27 1
  23   13   14 ar
  24   13   18 ar
  25   14   15 ar
  26   14   28 1
  27   15   16 ar
  28   16   17 ar
  29   16   29 1
  30   17   18 ar
  31   17   30 1
  32   19   31 1
  33   19   32 1
  34   19   33 1
  35   20   21 1
  36   20   34 1
  37   20   35 1
  38   21   36 1
  39   21   37 1
  40   21   38 1

#	End of record

