#	Name: ASD01914324
#	Creating user name:	WinNT
#	Creation time:	15. 06. 2019 20:03

#	Modifying user name:	WinNT
#	Modification time:	15. 06. 2019 20:03

#	Program:	/corina/corina34_cracker 3.40 0067  02.08.2006

@<TRIPOS>MOLECULE
ASD01914324
  38   40    0    0    0
SMALL
NO_CHARGES


@<TRIPOS>ATOM
   1 N1            -0.0566     1.3034    -0.0090 N.pl3   
   2 C2             0.0534    -0.0512    -0.1587 C.2     
   3 C3             1.2062     1.7966     0.1488 C.2     
   4 N4             2.0560     0.7964     0.0992 N.2     
   5 C5             1.3782    -0.3507    -0.0887 C.2     
   6 C6             1.5588     3.2196     0.3431 C.ar    
   7 C7             0.6504     4.2200    -0.0056 C.ar    
   8 C8             0.9840     5.5455     0.1781 C.ar    
   9 C9             2.2189     5.8848     0.7077 C.ar    
  10 C10            3.1247     4.8952     1.0557 C.ar    
  11 C11            2.7988     3.5665     0.8814 C.ar    
  12 C12            1.9724    -1.7059    -0.2001 C.ar    
  13 C13            3.3530    -1.8730    -0.1108 C.ar    
  14 C14            1.1511    -2.8157    -0.3886 C.ar    
  15 C15            1.7079    -4.0741    -0.4912 C.ar    
  16 C16            3.0814    -4.2350    -0.4070 C.ar    
  17 C17            3.9013    -3.1350    -0.2144 C.ar    
  18 C18           -1.2980     2.0812    -0.0219 C.3     
  19 C19           -1.5785     2.5565    -1.4242 C.2     
  20 O20           -2.6717     3.2931    -1.6772 O.3     
  21 O21           -0.8193     2.2745    -2.3209 O.2     
  22 C22           -2.8782     3.7161    -3.0508 C.3     
  23 F23            3.6223    -5.4689    -0.5075 F       
  24 F24            2.5412     7.1847     0.8849 F       
  25 H25           -0.7570    -0.7501    -0.3042 H       
  26 H26           -0.3120     3.9566    -0.4191 H       
  27 H27            0.2817     6.3204    -0.0915 H       
  28 H28            4.0857     5.1649     1.4680 H       
  29 H29            3.5051     2.7961     1.1533 H       
  30 H30            3.9929    -1.0160     0.0391 H       
  31 H31            0.0803    -2.6912    -0.4540 H       
  32 H32            1.0721    -4.9348    -0.6370 H       
  33 H33            4.9714    -3.2650    -0.1494 H       
  34 H34           -2.1221     1.4559     0.3214 H       
  35 H35           -1.1947     2.9415     0.6394 H       
  36 H36           -2.9612     2.8390    -3.6925 H       
  37 H37           -3.7948     4.3024    -3.1165 H       
  38 H38           -2.0337     4.3245    -3.3745 H       
@<TRIPOS>BOND
   1    1    2 1
   2    1    3 1
   3    1   18 1
   4    2    5 2
   5    2   25 1
   6    3    4 2
   7    3    6 1
   8    4    5 1
   9    5   12 1
  10    6    7 ar
  11    6   11 ar
  12    7    8 ar
  13    7   26 1
  14    8    9 ar
  15    8   27 1
  16    9   10 ar
  17    9   24 1
  18   10   11 ar
  19   10   28 1
  20   11   29 1
  21   12   13 ar
  22   12   14 ar
  23   13   17 ar
  24   13   30 1
  25   14   15 ar
  26   14   31 1
  27   15   16 ar
  28   15   32 1
  29   16   17 ar
  30   16   23 1
  31   17   33 1
  32   18   19 1
  33   18   34 1
  34   18   35 1
  35   19   20 1
  36   19   21 2
  37   20   22 1
  38   22   36 1
  39   22   37 1
  40   22   38 1

#	End of record

