#	Name: ASD05313134
#	Creating user name:	WinNT
#	Creation time:	15. 06. 2019 20:58

#	Modifying user name:	WinNT
#	Modification time:	15. 06. 2019 20:58

#	Program:	/corina/corina34_cracker 3.40 0067  02.08.2006

@<TRIPOS>MOLECULE
ASD05313134
  44   48    0    0    0
SMALL
NO_CHARGES


@<TRIPOS>ATOM
   1 N1            -0.2370     3.2732    -3.8021 N.ar    
   2 C2            -0.0808     2.6406    -4.9406 C.ar    
   3 C3             1.0295     1.8360    -5.1844 C.ar    
   4 C4             1.9901     1.6915    -4.2240 C.ar    
   5 C5             1.8176     2.3731    -3.0040 C.ar    
   6 C6             2.7641     2.2705    -1.9716 C.ar    
   7 C7             2.5723     2.9407    -0.8003 C.ar    
   8 C8             1.4474     3.7319    -0.6033 C.ar    
   9 C9             0.4889     3.8600    -1.5959 C.ar    
  10 C10            0.6642     3.1740    -2.8237 C.ar    
  11 C11           -2.0335     6.3431    -0.8523 C.2     
  12 C12           -2.5100     7.6897    -0.3627 C.3     
  13 N13           -0.7240     5.9631    -0.8615 N.pl3   
  14 N14           -1.3647     8.3321     0.3095 N.am    
  15 C15           -0.0454     8.2479    -0.3347 C.3     
  16 C16            0.3950     6.7804    -0.3963 C.3     
  17 N17           -1.9541     4.3809    -1.6443 N.2     
  18 N18           -2.7326     5.3590    -1.3309 N.2     
  19 C19           -0.7034     4.7024    -1.3764 C.2     
  20 C20           -1.5231     8.9780     1.4818 C.2     
  21 O21           -0.5536     9.4156     2.0706 O.2     
  22 C22           -2.8740     9.1540     2.0511 C.ar    
  23 C23           -3.1003     8.9113     3.4093 C.ar    
  24 C24           -4.3651     9.0781     3.9352 C.ar    
  25 C25           -5.4091     9.4853     3.1195 C.ar    
  26 C26           -5.1896     9.7269     1.7717 C.ar    
  27 C27           -3.9295     9.5692     1.2363 C.ar    
  28 F28           -6.6454     9.6472     3.6395 F       
  29 Cl29          -1.7933     8.4007     4.4314 Cl      
  30 H30           -0.8328     2.7461    -5.7086 H       
  31 H31            1.1308     1.3268    -6.1314 H       
  32 H32            2.8576     1.0714    -4.3955 H       
  33 H33            3.6447     1.6597    -2.1057 H       
  34 H34            3.3063     2.8550    -0.0126 H       
  35 H35            1.3184     4.2526     0.3341 H       
  36 H36           -2.8357     8.2984    -1.2063 H       
  37 H37           -3.3308     7.5600     0.3427 H       
  38 H38           -0.1073     8.6521    -1.3451 H       
  39 H39            0.6792     8.8214     0.2435 H       
  40 H40            0.6999     6.4494     0.5965 H       
  41 H41            1.2317     6.6799    -1.0877 H       
  42 H42           -4.5418     8.8907     4.9840 H       
  43 H43           -6.0072    10.0433     1.1410 H       
  44 H44           -3.7594     9.7624     0.1874 H       
@<TRIPOS>BOND
   1    1    2 ar
   2    1   10 ar
   3    2    3 ar
   4    2   30 1
   5    3    4 ar
   6    3   31 1
   7    4    5 ar
   8    4   32 1
   9    5    6 ar
  10    5   10 ar
  11    6    7 ar
  12    6   33 1
  13    7    8 ar
  14    7   34 1
  15    8    9 ar
  16    8   35 1
  17    9   10 ar
  18    9   19 1
  19   11   12 1
  20   11   13 1
  21   11   18 2
  22   12   14 1
  23   12   36 1
  24   12   37 1
  25   13   16 1
  26   13   19 1
  27   14   15 1
  28   14   20 am
  29   15   16 1
  30   15   38 1
  31   15   39 1
  32   16   40 1
  33   16   41 1
  34   17   18 1
  35   17   19 2
  36   20   21 2
  37   20   22 1
  38   22   23 ar
  39   22   27 ar
  40   23   24 ar
  41   23   29 1
  42   24   25 ar
  43   24   42 1
  44   25   26 ar
  45   25   28 1
  46   26   27 ar
  47   26   43 1
  48   27   44 1

#	End of record

