#	Name: ASD07932015
#	Creating user name:	WinNT
#	Creation time:	15. 06. 2019 21:14

#	Modifying user name:	WinNT
#	Modification time:	15. 06. 2019 21:14

#	Program:	/corina/corina34_cracker 3.40 0067  02.08.2006

@<TRIPOS>MOLECULE
ASD07932015
  24   24    0    0    0
SMALL
NO_CHARGES


@<TRIPOS>ATOM
   1 C1            -0.0168     1.3882     0.0100 C.ar    
   2 C2             0.0020    -0.0040    -0.0051 C.ar    
   3 C3            -1.2050    -0.6793     0.0033 C.ar    
   4 C4            -2.3926     0.0526     0.0265 C.ar    
   5 N5            -2.3701     1.3806     0.0399 N.ar    
   6 C6            -1.2409     2.0517     0.0388 C.ar    
   7 C7            -3.6891    -0.6572     0.0357 C.2     
   8 O8            -3.7169    -1.8714     0.0231 O.2     
   9 O9            -4.8400     0.0427     0.0581 O.3     
  10 O10            1.1445     2.0903     0.0024 O.3     
  11 C11            2.3569     1.3400     0.0977 C.3     
  12 C12            2.7743     0.8661    -1.2958 C.3     
  13 C13            3.4583     2.2234     0.6872 C.3     
  14 H14            0.9371    -0.5439    -0.0234 H       
  15 H15           -1.2279    -1.7590    -0.0083 H       
  16 H16           -1.2622     3.1315     0.0503 H       
  17 H17           -5.6627    -0.4654     0.0633 H       
  18 H18            2.1996     0.4760     0.7434 H       
  19 H19            1.9897     0.2368    -1.7158 H       
  20 H20            2.9316     1.7302    -1.9415 H       
  21 H21            3.6991     0.2938    -1.2231 H       
  22 H22            3.1609     2.5610     1.6800 H       
  23 H23            4.3831     1.6511     0.7599 H       
  24 H24            3.6156     3.0874     0.0416 H       
@<TRIPOS>BOND
   1    1    2 ar
   2    1   10 1
   3    1    6 ar
   4    2    3 ar
   5    2   14 1
   6    3    4 ar
   7    3   15 1
   8    4    5 ar
   9    4    7 1
  10    5    6 ar
  11    6   16 1
  12    7    8 2
  13    7    9 1
  14    9   17 1
  15   10   11 1
  16   11   12 1
  17   11   13 1
  18   11   18 1
  19   12   19 1
  20   12   20 1
  21   12   21 1
  22   13   22 1
  23   13   23 1
  24   13   24 1

#	End of record

