#	Name: ASD01911596
#	Creating user name:	WinNT
#	Creation time:	15. 06. 2019 19:58

#	Modifying user name:	WinNT
#	Modification time:	15. 06. 2019 19:58

#	Program:	/corina/corina34_cracker 3.40 0067  02.08.2006

@<TRIPOS>MOLECULE
ASD01911596
  40   42    0    0    0
SMALL
NO_CHARGES


@<TRIPOS>ATOM
   1 N1            -0.0215     1.2942    -0.3592 N.am    
   2 C2             0.0021    -0.0041     0.0020 C.2     
   3 C3            -1.2508    -0.7543     0.1205 C.2     
   4 C4            -1.3862    -2.1135     0.0310 C.2     
   5 S5            -2.8471    -0.0659     0.4110 S.3     
   6 C6            -3.5481    -1.6813     0.3771 C.2     
   7 N7            -2.6014    -2.5626     0.1691 N.2     
   8 C8            -4.9363    -1.9846     0.5542 C.1     
   9 C9            -6.0745    -2.2333     0.6993 C.1     
  10 C10           -7.4627    -2.5366     0.8764 C.ar    
  11 C11           -7.9039    -3.8625     0.8289 C.ar    
  12 C12           -9.2423    -4.1466     1.0008 C.ar    
  13 C13          -10.1481    -3.1233     1.2194 C.ar    
  14 C14           -9.7191    -1.8084     1.2677 C.ar    
  15 C15           -8.3831    -1.5088     1.1034 C.ar    
  16 O16            1.0642    -0.5532     0.2298 O.2     
  17 C17            1.1816     2.0197    -0.3321 C.3     
  18 C18            1.0540     3.2323     0.6275 C.3     
  19 C19            0.1467     4.2588    -0.0075 C.3     
  20 C20           -1.3291     4.1222     0.4045 C.3     
  21 C21           -1.8143     2.6729     0.4216 C.3     
  22 C22           -1.3072     1.8866    -0.7706 C.3     
  23 H23           -0.5446    -2.7679    -0.1422 H       
  24 H24           -7.1983    -4.6621     0.6577 H       
  25 H25           -9.5846    -5.1703     0.9644 H       
  26 H26          -11.1951    -3.3520     1.3526 H       
  27 H27          -10.4319    -1.0152     1.4383 H       
  28 H28           -8.0499    -0.4822     1.1413 H       
  29 H29            1.9871     1.3706     0.0113 H       
  30 H30            1.4111     2.3762    -1.3362 H       
  31 H31            0.6282     2.9048     1.5759 H       
  32 H32            2.0380     3.6692     0.7973 H       
  33 H33            0.4958     5.2526     0.2728 H       
  34 H34            0.2160     4.1617    -1.0910 H       
  35 H35           -1.4558     4.5461     1.4007 H       
  36 H36           -1.9426     4.6891    -0.2957 H       
  37 H37           -1.4661     2.1941     1.3368 H       
  38 H38           -2.9042     2.6646     0.4126 H       
  39 H39           -1.1605     2.5519    -1.6215 H       
  40 H40           -2.0166     1.1002    -1.0282 H       
@<TRIPOS>BOND
   1    1    2 am
   2    1   17 1
   3    1   22 1
   4    2    3 1
   5    2   16 2
   6    3    4 2
   7    3    5 1
   8    4    7 1
   9    4   23 1
  10    5    6 1
  11    6    7 2
  12    6    8 1
  13    8    9 3
  14    9   10 1
  15   10   11 ar
  16   10   15 ar
  17   11   12 ar
  18   11   24 1
  19   12   13 ar
  20   12   25 1
  21   13   14 ar
  22   13   26 1
  23   14   15 ar
  24   14   27 1
  25   15   28 1
  26   17   18 1
  27   17   29 1
  28   17   30 1
  29   18   19 1
  30   18   31 1
  31   18   32 1
  32   19   20 1
  33   19   33 1
  34   19   34 1
  35   20   21 1
  36   20   35 1
  37   20   36 1
  38   21   22 1
  39   21   37 1
  40   21   38 1
  41   22   39 1
  42   22   40 1

#	End of record

