#	Name: ASD03540157
#	Creating user name:	WinNT
#	Creation time:	15. 06. 2019 20:42

#	Modifying user name:	WinNT
#	Modification time:	15. 06. 2019 20:42

#	Program:	/corina/corina34_cracker 3.40 0067  02.08.2006

@<TRIPOS>MOLECULE
ASD03540157
  59   62    0    0    0
SMALL
NO_CHARGES


@<TRIPOS>ATOM
   1 C1             2.7522    -8.6911    -2.5506 C.2     
   2 C2             2.0609    -7.5585    -1.9012 C.ar    
   3 C3             0.6750    -7.5858    -1.7334 C.ar    
   4 C4             0.0360    -6.5250    -1.1258 C.ar    
   5 C5             0.7652    -5.4354    -0.6834 C.ar    
   6 C6             2.1388    -5.4016    -0.8470 C.ar    
   7 C7             2.7912    -6.4584    -1.4473 C.ar    
   8 O8             2.1147    -9.6490    -2.9400 O.2     
   9 O9             4.0887    -8.6591    -2.7160 O.3     
  10 C10            0.0601    -4.2800    -0.0210 C.3     
  11 N11           -3.3734    -4.7489     1.2281 N.am    
  12 C12           -2.2984    -4.3336     0.5368 C.2     
  13 N13           -1.0579    -4.7846     0.7800 N.am    
  14 C14           -0.8208    -5.6953     1.7489 C.2     
  15 C15           -1.9636    -6.1872     2.5402 C.ar    
  16 C16           -1.7988    -7.1240     3.5544 C.ar    
  17 C17           -2.9103    -7.5564     4.2731 C.ar    
  18 C18           -4.1799    -7.0499     3.9739 C.ar    
  19 C19           -4.3434    -6.1221     2.9690 C.ar    
  20 C20           -3.2434    -5.6826     2.2454 C.ar    
  21 O21            0.3059    -6.0993     1.9629 O.2     
  22 O22           -2.4563    -3.5138    -0.3470 O.2     
  23 C23            1.0420    -3.5355     0.8859 C.3     
  24 C24           -2.7540    -8.5212     5.3196 C.1     
  25 C25           -2.6258    -9.3122     6.1776 C.1     
  26 C26           -2.4651   -10.3040     7.2534 C.3     
  27 C27           -3.8086   -10.6000     7.8686 C.ar    
  28 C28           -4.5909   -11.6202     7.3598 C.ar    
  29 C29           -5.8229   -11.8935     7.9219 C.ar    
  30 C30           -6.2748   -11.1434     8.9979 C.ar    
  31 C31           -5.4879   -10.1203     9.5066 C.ar    
  32 C32           -4.2543    -9.8547     8.9445 C.ar    
  33 O33           -7.4866   -11.4101     9.5524 O.3     
  34 C34           -7.8874   -10.5974    10.6574 C.3     
  35 C35            4.7006    -9.8066    -3.3619 C.3     
  36 H36            0.1047    -8.4353    -2.0789 H       
  37 H37           -1.0359    -6.5448    -0.9954 H       
  38 H38            2.7018    -4.5478    -0.5000 H       
  39 H39            3.8639    -6.4329    -1.5700 H       
  40 H40           -0.3177    -3.5992    -0.7838 H       
  41 H41           -4.2489    -4.3891     1.0158 H       
  42 H42           -0.8174    -7.5132     3.7824 H       
  43 H43           -5.0381    -7.3892     4.5350 H       
  44 H44           -5.3270    -5.7366     2.7445 H       
  45 H45            0.5320    -2.6998     1.3650 H       
  46 H46            1.4198    -4.2162     1.6487 H       
  47 H47            1.8739    -3.1600     0.2899 H       
  48 H48           -2.0438   -11.2213     6.8420 H       
  49 H49           -1.7956    -9.9071     8.0165 H       
  50 H50           -4.2388   -12.2036     6.5219 H       
  51 H51           -6.4338   -12.6902     7.5239 H       
  52 H52           -5.8376    -9.5350    10.3441 H       
  53 H53           -3.6392    -9.0615     9.3432 H       
  54 H54           -7.1652   -10.7031    11.4669 H       
  55 H55           -7.9318    -9.5544    10.3440 H       
  56 H56           -8.8708   -10.9149    11.0040 H       
  57 H57            4.4994   -10.7035    -2.7761 H       
  58 H58            4.2845    -9.9251    -4.3623 H       
  59 H59            5.7774    -9.6525    -3.4322 H       
@<TRIPOS>BOND
   1    1    2 1
   2    1    8 2
   3    1    9 1
   4    2    3 ar
   5    2    7 ar
   6    3    4 ar
   7    3   36 1
   8    4    5 ar
   9    4   37 1
  10    5    6 ar
  11    5   10 1
  12    6    7 ar
  13    6   38 1
  14    7   39 1
  15    9   35 1
  16   10   13 1
  17   10   23 1
  18   10   40 1
  19   11   12 am
  20   11   20 1
  21   11   41 1
  22   12   13 am
  23   12   22 2
  24   13   14 am
  25   14   15 1
  26   14   21 2
  27   15   16 ar
  28   15   20 ar
  29   16   17 ar
  30   16   42 1
  31   17   18 ar
  32   17   24 1
  33   18   19 ar
  34   18   43 1
  35   19   20 ar
  36   19   44 1
  37   23   45 1
  38   23   46 1
  39   23   47 1
  40   24   25 3
  41   25   26 1
  42   26   27 1
  43   26   48 1
  44   26   49 1
  45   27   28 ar
  46   27   32 ar
  47   28   29 ar
  48   28   50 1
  49   29   30 ar
  50   29   51 1
  51   30   31 ar
  52   30   33 1
  53   31   32 ar
  54   31   52 1
  55   32   53 1
  56   33   34 1
  57   34   54 1
  58   34   55 1
  59   34   56 1
  60   35   57 1
  61   35   58 1
  62   35   59 1

#	End of record

