#	Name: ASD03092662
#	Creating user name:	WinNT
#	Creation time:	15. 06. 2019 20:32

#	Modifying user name:	WinNT
#	Modification time:	15. 06. 2019 20:32

#	Program:	/corina/corina34_cracker 3.40 0067  02.08.2006

@<TRIPOS>MOLECULE
ASD03092662
  41   44    0    0    0
SMALL
NO_CHARGES


@<TRIPOS>ATOM
   1 N1             0.0396     1.3035     0.5275 N.pl3   
   2 C2             0.0140    -0.0231     0.0865 C.ar    
   3 C3            -1.1951    -0.7198    -0.0312 C.ar    
   4 N4            -2.3982    -0.1040     0.2891 N.pl3   
   5 C5            -3.5860    -0.8451     0.2879 C.ar    
   6 C6            -3.5676    -2.1874     0.6634 C.ar    
   7 C7            -4.7270    -2.9300     0.6675 C.ar    
   8 C8            -5.9311    -2.3423     0.2948 C.ar    
   9 N9            -7.2243    -2.8123     0.1997 N.pl3   
  10 H10           -7.5043    -3.7186     0.4024 H       
  11 C11           -8.0533    -1.8094    -0.2227 C.2     
  12 C12           -7.3490    -0.6824    -0.4121 C.2     
  13 C13           -5.9542    -0.9880    -0.0844 C.ar    
  14 C14           -4.7743    -0.2416    -0.0804 C.ar    
  15 N15           -1.1731    -1.9795    -0.4548 N.ar    
  16 C16           -0.0365    -2.5732    -0.7619 C.ar    
  17 N17            1.1226    -1.9577    -0.6665 N.ar    
  18 C18            1.1945    -0.6905    -0.2551 C.ar    
  19 C19            2.5038    -0.0034    -0.1569 C.ar    
  20 C20            2.8425     0.6953     1.0007 C.ar    
  21 C21            4.0634     1.3329     1.0868 C.ar    
  22 C22            4.9516     1.2808     0.0276 C.ar    
  23 C23            4.6232     0.5901    -1.1247 C.ar    
  24 C24            3.4061    -0.0580    -1.2214 C.ar    
  25 F25            3.0880    -0.7378    -2.3448 F       
  26 C26            6.2826     1.9802     0.1295 C.3     
  27 F27            7.2310     1.1020     0.6647 F       
  28 F28            6.6927     2.3900    -1.1437 F       
  29 F29            6.1596     3.0978     0.9620 F       
  30 H30            0.8663     1.8099     0.4939 H       
  31 H31           -0.7702     1.7187     0.8632 H       
  32 H32           -2.4155     0.8395     0.5137 H       
  33 H33           -2.6354    -2.6492     0.9534 H       
  34 H34           -4.7012    -3.9694     0.9599 H       
  35 H35           -9.1169    -1.9095    -0.3807 H       
  36 H36           -7.7370     0.2693    -0.7440 H       
  37 H37           -4.7889     0.7995    -0.3670 H       
  38 H38           -0.0576    -3.5979    -1.1023 H       
  39 H39            2.1504     0.7380     1.8287 H       
  40 H40            4.3260     1.8744     1.9837 H       
  41 H41            5.3207     0.5533    -1.9485 H       
@<TRIPOS>BOND
   1    1    2 1
   2    1   30 1
   3    1   31 1
   4    2   18 ar
   5    2    3 ar
   6    3    4 1
   7    3   15 ar
   8    4    5 1
   9    4   32 1
  10    5   14 ar
  11    5    6 ar
  12    6    7 ar
  13    6   33 1
  14    7    8 ar
  15    7   34 1
  16    8   13 ar
  17    8    9 1
  18    9   10 1
  19    9   11 1
  20   11   12 2
  21   11   35 1
  22   12   13 1
  23   12   36 1
  24   13   14 ar
  25   14   37 1
  26   15   16 ar
  27   16   17 ar
  28   16   38 1
  29   17   18 ar
  30   18   19 1
  31   19   24 ar
  32   19   20 ar
  33   20   21 ar
  34   20   39 1
  35   21   22 ar
  36   21   40 1
  37   22   23 ar
  38   22   26 1
  39   23   24 ar
  40   23   41 1
  41   24   25 1
  42   26   27 1
  43   26   28 1
  44   26   29 1

#	End of record

