#	Name: ASD08150002
#	Creating user name:	WinNT
#	Creation time:	15. 06. 2019 21:15

#	Modifying user name:	WinNT
#	Modification time:	15. 06. 2019 21:15

#	Program:	/corina/corina34_cracker 3.40 0067  02.08.2006

@<TRIPOS>MOLECULE
ASD08150002
  52   55    0    0    0
SMALL
NO_CHARGES


@<TRIPOS>ATOM
   1 O1            -0.0876     1.1436     0.1387 O.3     
   2 C2             0.0715    -0.1799     0.2494 C.2     
   3 N3             1.3288    -0.5940     0.0410 N.am    
   4 C4             2.1719     0.5745    -0.2546 C.3     
   5 C5             1.1916     1.7613    -0.1852 C.3     
   6 O6            -0.8406    -0.9374     0.5149 O.2     
   7 C7             2.7783     0.4593    -1.6546 C.3     
   8 C8             3.7621     1.6091    -1.8804 C.3     
   9 O9             4.4035     1.4454    -3.1468 O.3     
  10 C10            3.4907    -3.4464     0.1506 C.ar    
  11 N11            2.6490    -4.4669     0.1993 N.ar    
  12 C12            1.3314    -4.2648     0.1986 C.ar    
  13 C13            0.8467    -2.9584     0.1456 C.ar    
  14 C14            1.7652    -1.9134     0.0953 C.ar    
  15 N15            3.0651    -2.1930     0.0995 N.ar    
  16 C16           -1.2991    -7.4881     0.3519 C.ar    
  17 N17            0.0061    -7.7212     0.3536 N.ar    
  18 C18            0.8723    -6.7255     0.3057 C.ar    
  19 C19            0.3948    -5.4124     0.2529 C.ar    
  20 C20           -0.9882    -5.2094     0.2530 C.ar    
  21 N21           -1.7902    -6.2578     0.3027 N.ar    
  22 C22            2.3540    -7.0005     0.3086 C.3     
  23 F23            2.5721    -8.3812     0.2514 F       
  24 F24            2.9440    -6.3888    -0.8026 F       
  25 F25            2.9214    -6.4869     1.4797 F       
  26 N26            4.8521    -3.6954     0.1589 N.3     
  27 C27            5.1233    -5.1388     0.2245 C.3     
  28 C28            6.6355    -5.3714     0.1714 C.3     
  29 O29            7.2610    -4.6540     1.2388 O.3     
  30 C30            7.0182    -3.2450     1.2054 C.3     
  31 C31            5.5098    -2.9908     1.2690 C.3     
  32 N32           -2.1725    -8.5584     0.3971 N.pl3   
  33 H33            2.9555     0.6807     0.4956 H       
  34 H34            1.1377     2.2692    -1.1482 H       
  35 H35            1.4893     2.4574     0.5989 H       
  36 H36            3.3034    -0.4915    -1.7461 H       
  37 H37            1.9842     0.5090    -2.3996 H       
  38 H38            3.2233     2.5565    -1.8657 H       
  39 H39            4.5126     1.6056    -1.0899 H       
  40 H40            5.0424     2.1403    -3.3569 H       
  41 H41           -0.2153    -2.7621     0.1433 H       
  42 H42           -1.3951    -4.2098     0.2127 H       
  43 H43            4.7255    -5.5419     1.1559 H       
  44 H44            4.6484    -5.6372    -0.6206 H       
  45 H45            6.8440    -6.4361     0.2772 H       
  46 H46            7.0250    -5.0167    -0.7829 H       
  47 H47            7.5034    -2.7717     2.0590 H       
  48 H48            7.4188    -2.8284     0.2812 H       
  49 H49            5.3171    -1.9212     1.1863 H       
  50 H50            5.1183    -3.3596     2.2171 H       
  51 H51           -1.8279    -9.4645     0.4295 H       
  52 H52           -3.1300    -8.4033     0.3965 H       
@<TRIPOS>BOND
   1    1    2 1
   2    1    5 1
   3    2    3 am
   4    2    6 2
   5    3    4 1
   6    3   14 1
   7    4    5 1
   8    4    7 1
   9    4   33 1
  10    5   34 1
  11    5   35 1
  12    7    8 1
  13    7   36 1
  14    7   37 1
  15    8    9 1
  16    8   38 1
  17    8   39 1
  18    9   40 1
  19   10   11 ar
  20   10   15 ar
  21   10   26 1
  22   11   12 ar
  23   12   13 ar
  24   12   19 1
  25   13   14 ar
  26   13   41 1
  27   14   15 ar
  28   16   17 ar
  29   16   21 ar
  30   16   32 1
  31   17   18 ar
  32   18   19 ar
  33   18   22 1
  34   19   20 ar
  35   20   21 ar
  36   20   42 1
  37   22   23 1
  38   22   24 1
  39   22   25 1
  40   26   27 1
  41   26   31 1
  42   27   28 1
  43   27   43 1
  44   27   44 1
  45   28   29 1
  46   28   45 1
  47   28   46 1
  48   29   30 1
  49   30   31 1
  50   30   47 1
  51   30   48 1
  52   31   49 1
  53   31   50 1
  54   32   51 1
  55   32   52 1

#	End of record

