#	Name: ASD01881455
#	Creating user name:	WinNT
#	Creation time:	15. 06. 2019 19:42

#	Modifying user name:	WinNT
#	Modification time:	15. 06. 2019 19:42

#	Program:	/corina/corina34_cracker 3.40 0067  02.08.2006

@<TRIPOS>MOLECULE
ASD01881455
  52   56    0    0    0
SMALL
NO_CHARGES


@<TRIPOS>ATOM
   1 C1            -0.0187     1.5258     0.0104 C.3     
   2 C2             1.1216    10.0921     4.2860 C.ar    
   3 C3             1.3137     9.0046     3.4586 C.ar    
   4 C4            -0.0100    10.1708     5.0779 C.ar    
   5 C5            -0.9552     9.1611     5.0458 C.ar    
   6 C6            -0.7740     8.0687     4.2224 C.ar    
   7 C7             0.3646     7.9837     3.4219 C.ar    
   8 C8             0.5649     6.8133     2.5351 C.2     
   9 C9             0.5743     6.9716     1.1624 C.2     
  10 C10            0.7546     5.5228     3.0864 C.2     
  11 C11            0.9364     4.4609     2.2792 C.2     
  12 N12            0.9421     4.6071     0.9219 N.pl3   
  13 C13            0.7670     5.8429     0.3474 C.2     
  14 C14            1.0994     3.7357    -0.1122 C.2     
  15 N15            1.0158     4.4224    -1.2225 N.2     
  16 N16            0.8203     5.6676    -0.9640 N.2     
  17 C17            1.3287     2.2506     0.0015 C.3     
  18 C18           -0.2137    11.3610     5.9796 C.3     
  19 N19           -0.9475    12.4058     5.2531 N.3     
  20 C20           -1.3733    13.4836     6.1648 C.3     
  21 C21            0.0021    -0.0041     0.0020 C.3     
  22 C22           -0.3944     0.7486     1.2737 C.3     
  23 C23           -0.7904    14.8031     5.6165 C.3     
  24 C24           -0.5448    14.4811     4.1189 C.3     
  25 C25           -0.1119    12.9952     4.1853 C.3     
  26 F26           -1.7207    14.6277     3.3754 F       
  27 F27            0.4790    15.2784     3.5963 F       
  28 C28            0.3805     8.3341     0.5483 C.3     
  29 F29            1.6285     8.9089     0.2853 F       
  30 F30           -0.3366     8.2094    -0.6464 F       
  31 F31           -0.3304     9.1488     1.4360 F       
  32 H32           -0.8227     2.0212    -0.5339 H       
  33 H33            1.8582    10.8813     4.3186 H       
  34 H34            2.1973     8.9444     2.8406 H       
  35 H35           -1.8366     9.2280     5.6662 H       
  36 H36           -1.5123     7.2809     4.1984 H       
  37 H37            0.7535     5.3901     4.1582 H       
  38 H38            1.0802     3.4813     2.7107 H       
  39 H39            1.8633     2.0353     0.9266 H       
  40 H40            1.9198     1.9082    -0.8479 H       
  41 H41           -0.7855    11.0585     6.8569 H       
  42 H42            0.7553    11.7490     6.2935 H       
  43 H43           -2.4615    13.5406     6.1888 H       
  44 H44           -0.9874    13.2958     7.1668 H       
  45 H45           -0.7885    -0.5151    -0.5475 H       
  46 H46            0.9756    -0.4941    -0.0099 H       
  47 H47            0.3183     0.7538     2.0984 H       
  48 H48           -1.4458     0.7328     1.5608 H       
  49 H49           -1.5091    15.6156     5.7232 H       
  50 H50            0.1465    15.0478     6.1168 H       
  51 H51            0.9441    12.9188     4.4441 H       
  52 H52           -0.3071    12.5002     3.2340 H       
@<TRIPOS>BOND
   1    1   21 1
   2    1   17 1
   3    1   22 1
   4    1   32 1
   5    2    3 ar
   6    2    4 ar
   7    2   33 1
   8    3    7 ar
   9    3   34 1
  10    4    5 ar
  11    4   18 1
  12    5    6 ar
  13    5   35 1
  14    6    7 ar
  15    6   36 1
  16    7    8 1
  17    8    9 2
  18    8   10 1
  19    9   28 1
  20    9   13 1
  21   10   11 2
  22   10   37 1
  23   11   12 1
  24   11   38 1
  25   12   13 1
  26   12   14 1
  27   13   16 2
  28   14   15 2
  29   14   17 1
  30   15   16 1
  31   17   39 1
  32   17   40 1
  33   18   19 1
  34   18   41 1
  35   18   42 1
  36   19   20 1
  37   19   25 1
  38   20   23 1
  39   20   43 1
  40   20   44 1
  41   21   22 1
  42   21   45 1
  43   21   46 1
  44   22   47 1
  45   22   48 1
  46   23   24 1
  47   23   49 1
  48   23   50 1
  49   24   25 1
  50   24   26 1
  51   24   27 1
  52   25   51 1
  53   25   52 1
  54   28   29 1
  55   28   30 1
  56   28   31 1

#	End of record

