#	Name: ASD05790115
#	Creating user name:	WinNT
#	Creation time:	15. 06. 2019 21:03

#	Modifying user name:	WinNT
#	Modification time:	15. 06. 2019 21:03

#	Program:	/corina/corina34_cracker 3.40 0067  02.08.2006

@<TRIPOS>MOLECULE
ASD05790115
  50   52    0    0    0
SMALL
NO_CHARGES


@<TRIPOS>ATOM
   1 C1            -0.0068     1.3666    -0.2056 C.ar    
   2 C2             0.0067    -0.0115     0.0208 C.ar    
   3 C3             1.2202    -0.6694     0.2332 C.ar    
   4 C4             2.3996     0.0424     0.2189 C.ar    
   5 C5             2.3827     1.4145    -0.0068 C.ar    
   6 C6             1.1761     2.0725    -0.2187 C.ar    
   7 N7             3.5799     2.1330    -0.0202 N.am    
   8 C8            -1.2600    -0.7716     0.0359 C.2     
   9 O9            -2.4856    -0.2532    -0.1548 O.3     
  10 N10           -1.3724    -2.0634     0.2320 N.2     
  11 C11           -2.6792    -2.3949     0.1752 C.2     
  12 C12           -3.3788    -1.2580    -0.0678 C.2     
  13 C13           -3.2472    -3.7554     0.3440 C.ar    
  14 C14           -2.5492    -4.8674    -0.1226 C.ar    
  15 C15           -3.0822    -6.1304     0.0370 C.ar    
  16 C16           -4.3070    -6.2935     0.6588 C.ar    
  17 C17           -5.0043    -5.1931     1.1238 C.ar    
  18 C18           -4.4780    -3.9259     0.9746 C.ar    
  19 C19            4.6963     1.5731    -0.5268 C.2     
  20 C20            5.9376     2.3680    -0.6360 C.ar    
  21 O21            4.6823     0.4143    -0.8938 O.2     
  22 C22            7.0956     1.7911    -1.1602 C.ar    
  23 C23            5.9555     3.7007    -0.2208 C.ar    
  24 C24            7.1173     4.4371    -0.3260 C.ar    
  25 C25            8.2630     3.8576    -0.8416 C.ar    
  26 C26            8.2507     2.5388    -1.2598 C.ar    
  27 C27           -4.8743    -1.1412    -0.2131 C.3     
  28 F28           -5.4467    -0.8952     1.0395 F       
  29 F29           -5.1776    -0.0857    -1.0798 F       
  30 F30           -5.3868    -2.3342    -0.7339 F       
  31 C31            9.5284     4.6684    -0.9539 C.3     
  32 H32           -0.9431     1.8775    -0.3747 H       
  33 H33            1.2339    -1.7349     0.4089 H       
  34 H34            3.3383    -0.4657     0.3835 H       
  35 H35            1.1664     3.1382    -0.3937 H       
  36 H36            3.6080     3.0352     0.3350 H       
  37 H37           -1.5929    -4.7412    -0.6085 H       
  38 H38           -2.5422    -6.9930    -0.3245 H       
  39 H39           -4.7207    -7.2836     0.7812 H       
  40 H40           -5.9604    -5.3260     1.6082 H       
  41 H41           -5.0231    -3.0674     1.3384 H       
  42 H42            7.0874     0.7617    -1.4867 H       
  43 H43            5.0617     4.1542     0.1815 H       
  44 H44            7.1324     5.4683    -0.0054 H       
  45 H45            9.1485     2.0925    -1.6613 H       
  46 H46           10.1080     4.5663    -0.0364 H       
  47 H47           10.1170     4.3082    -1.7976 H       
  48 H48            9.2753     5.7172    -1.1089 H       
  49 F49           15.1170    10.7172     6.6082 F       
  50 H50           15.1170    11.6772     6.6082 H       
@<TRIPOS>BOND
   1    1    2 ar
   2    1    6 ar
   3    1   32 1
   4    2    3 ar
   5    2    8 1
   6    3    4 ar
   7    3   33 1
   8    4    5 ar
   9    4   34 1
  10    5    6 ar
  11    5    7 1
  12    6   35 1
  13    7   19 am
  14    7   36 1
  15    8    9 1
  16    8   10 2
  17    9   12 1
  18   10   11 1
  19   11   12 2
  20   11   13 1
  21   12   27 1
  22   13   14 ar
  23   13   18 ar
  24   14   15 ar
  25   14   37 1
  26   15   16 ar
  27   15   38 1
  28   16   17 ar
  29   16   39 1
  30   17   18 ar
  31   17   40 1
  32   18   41 1
  33   19   20 1
  34   19   21 2
  35   20   22 ar
  36   20   23 ar
  37   22   26 ar
  38   22   42 1
  39   23   24 ar
  40   23   43 1
  41   24   25 ar
  42   24   44 1
  43   25   26 ar
  44   25   31 1
  45   26   45 1
  46   27   28 1
  47   27   29 1
  48   27   30 1
  49   31   46 1
  50   31   47 1
  51   31   48 1
  52   49   50 1

#	End of record

