#	Name: ASD01883764
#	Creating user name:	WinNT
#	Creation time:	15. 06. 2019 19:47

#	Modifying user name:	WinNT
#	Modification time:	15. 06. 2019 19:47

#	Program:	/corina/corina34_cracker 3.40 0067  02.08.2006

@<TRIPOS>MOLECULE
ASD01883764
  56   60    0    0    0
SMALL
NO_CHARGES


@<TRIPOS>ATOM
   1 C1            -0.2349     1.0943    -0.6372 C.2     
   2 C2            -0.1393    -0.3008    -0.5279 C.2     
   3 C3            -1.3217    -1.0701    -0.5364 C.2     
   4 C4            -2.5287    -0.4848    -0.6479 C.2     
   5 N5            -2.6675     0.8684    -0.7570 N.pl3   
   6 C6            -1.5685     1.6888    -0.7498 C.2     
   7 C7            -3.7665     1.6787    -0.8796 C.2     
   8 C8            -3.3183     2.9499    -0.9496 C.2     
   9 N9            -1.9836     2.9371    -0.8683 N.2     
  10 C10           -5.2054     1.2335    -0.9274 C.3     
  11 C11            1.1804    -0.9550    -0.4060 C.ar    
  12 C12            1.5178    -1.6398     0.7626 C.ar    
  13 C13            2.7542    -2.2515     0.8762 C.ar    
  14 C14            3.6617    -2.1886    -0.1778 C.ar    
  15 C15            3.3223    -1.5027    -1.3430 C.ar    
  16 C16            2.0928    -0.8954    -1.4617 C.ar    
  17 C17           -5.6484     1.0955    -2.3854 C.3     
  18 F18           -4.8454     0.1478    -3.0290 F       
  19 F19           -6.9842     0.6822    -2.4297 F       
  20 F20           -5.5206     2.3302    -3.0305 F       
  21 C21            0.9387     1.9149    -0.6330 C.1     
  22 N22            1.8696     2.5659    -0.6297 N.1     
  23 O23            3.0567    -2.9015     2.0339 O.3     
  24 C24            4.1834    -3.7836     2.0003 C.3     
  25 C25            5.3264    -3.0611     1.2756 C.3     
  26 N26            4.9134    -2.8016    -0.1083 N.3     
  27 C27            5.9266    -2.0119    -0.8208 C.3     
  28 C28            6.0645    -0.6406    -0.1564 C.3     
  29 C29            7.1198     0.1818    -0.8985 C.3     
  30 C30            8.4639    -0.5474    -0.8469 C.3     
  31 C31            8.3259    -1.9187    -1.5114 C.3     
  32 C32            7.2706    -2.7411    -0.7692 C.3     
  33 O33            9.4495     0.2208    -1.5401 O.3     
  34 H34           -1.2575    -2.1450    -0.4527 H       
  35 H35           -3.4133    -1.1044    -0.6513 H       
  36 H36           -3.9350     3.8308    -1.0506 H       
  37 H37           -5.3050     0.2715    -0.4248 H       
  38 H38           -5.8310     1.9719    -0.4260 H       
  39 H39            0.8133    -1.6922     1.5795 H       
  40 H40            4.0273    -1.4506    -2.1595 H       
  41 H41            1.8369    -0.3660    -2.3676 H       
  42 H42            4.4891    -4.0304     3.0170 H       
  43 H43            3.9227    -4.6945     1.4615 H       
  44 H44            5.5388    -2.1169     1.7772 H       
  45 H45            6.2173    -3.6891     1.2799 H       
  46 H46            5.6226    -1.8834    -1.8597 H       
  47 H47            5.1070    -0.1211    -0.1932 H       
  48 H48            6.3685    -0.7692     0.8824 H       
  49 H49            6.8159     0.3104    -1.9374 H       
  50 H50            7.2181     1.1588    -0.4252 H       
  51 H51            8.7679    -0.6759     0.1919 H       
  52 H52            8.0220    -1.7901    -2.5502 H       
  53 H53            9.2835    -2.4382    -1.4746 H       
  54 H54            7.5746    -2.8697     0.2696 H       
  55 H55            7.1724    -3.7181    -1.2426 H       
  56 H56           10.3285    -0.1823    -1.5478 H       
@<TRIPOS>BOND
   1    1    2 2
   2    1   21 1
   3    1    6 1
   4    2    3 1
   5    2   11 1
   6    3    4 2
   7    3   34 1
   8    4    5 1
   9    4   35 1
  10    5    6 1
  11    5    7 1
  12    6    9 2
  13    7    8 2
  14    7   10 1
  15    8    9 1
  16    8   36 1
  17   10   17 1
  18   10   37 1
  19   10   38 1
  20   11   12 ar
  21   11   16 ar
  22   12   13 ar
  23   12   39 1
  24   13   14 ar
  25   13   23 1
  26   14   15 ar
  27   14   26 1
  28   15   16 ar
  29   15   40 1
  30   16   41 1
  31   17   18 1
  32   17   19 1
  33   17   20 1
  34   21   22 3
  35   23   24 1
  36   24   25 1
  37   24   42 1
  38   24   43 1
  39   25   26 1
  40   25   44 1
  41   25   45 1
  42   26   27 1
  43   27   28 1
  44   27   32 1
  45   27   46 1
  46   28   29 1
  47   28   47 1
  48   28   48 1
  49   29   30 1
  50   29   49 1
  51   29   50 1
  52   30   31 1
  53   30   33 1
  54   30   51 1
  55   31   32 1
  56   31   52 1
  57   31   53 1
  58   32   54 1
  59   32   55 1
  60   33   56 1

#	End of record

