#	Name: ASD01881685
#	Creating user name:	WinNT
#	Creation time:	15. 06. 2019 19:43

#	Modifying user name:	WinNT
#	Modification time:	15. 06. 2019 19:43

#	Program:	/corina/corina34_cracker 3.40 0067  02.08.2006

@<TRIPOS>MOLECULE
ASD01881685
  51   54    0    0    0
SMALL
NO_CHARGES


@<TRIPOS>ATOM
   1 N1            -0.0178     1.4642     0.0101 N.3     
   2 C2             0.0021    -0.0041     0.0020 C.3     
   3 C3             0.7039    -0.5130     1.2631 C.3     
   4 C4             2.1331     0.0352     1.3025 C.3     
   5 C5             2.0858     1.5651     1.2611 C.3     
   6 C6             1.3439     2.0138     0.0000 C.3     
   7 C7             2.7942    -0.4031     2.5425 C.1     
   8 N8             3.3043    -0.7414     3.4994 N.1     
   9 C9            -0.8045     1.9863    -1.1153 C.3     
  10 C10           -1.0123     3.4916    -0.9375 C.3     
  11 C11           -1.8317     4.0353    -2.1097 C.3     
  12 O12           -1.7106     3.7349     0.2852 O.3     
  13 O13           -1.9270     5.4573    -2.0052 O.3     
  14 N14           -4.6940     8.2934    -5.7874 N.pl3   
  15 N15           -4.4748     9.5586    -5.2227 N.2     
  16 N16           -3.7706     9.4341    -4.1535 N.2     
  17 C17           -3.4792     8.1366    -3.9328 C.ar    
  18 C18           -4.0615     7.3857    -4.9687 C.ar    
  19 C19           -2.7558     7.4749    -2.9310 C.ar    
  20 C20           -2.6278     6.1021    -2.9760 C.ar    
  21 C21           -3.2107     5.3716    -4.0087 C.ar    
  22 C22           -3.9176     6.0031    -4.9930 C.ar    
  23 C23           -5.4522     7.9961    -7.0052 C.3     
  24 C24           -4.5131     8.0333    -8.2125 C.3     
  25 C25           -5.0924     7.6326    -9.5707 C.3     
  26 C26           -4.7738     9.1001    -9.2777 C.3     
  27 Br27          -1.9608     8.4584    -1.5251 Br      
  28 H28           -1.0204    -0.3810    -0.0218 H       
  29 H29            0.5390    -0.3552    -0.8792 H       
  30 H30            0.1597    -0.1738     2.1445 H       
  31 H31            0.7324    -1.6025     1.2493 H       
  32 H32            2.6892    -0.3354     0.4414 H       
  33 H33            1.5633     1.9370     2.1425 H       
  34 H34            3.1015     1.9603     1.2458 H       
  35 H35            1.8745     1.6533    -0.8812 H       
  36 H36            1.2960     3.1025    -0.0252 H       
  37 H37           -0.2719     1.8007    -2.0480 H       
  38 H38           -1.7729     1.4868    -1.1444 H       
  39 H39           -0.0439     3.9911    -0.9085 H       
  40 H40           -1.3431     3.7718    -3.0477 H       
  41 H41           -2.8314     3.6015    -2.0863 H       
  42 H42           -2.5827     3.3193     0.3296 H       
  43 H43           -3.1025     4.2973    -4.0322 H       
  44 H44           -4.3656     5.4278    -5.7896 H       
  45 H45           -5.8985     7.0051    -6.9224 H       
  46 H46           -6.2390     8.7394    -7.1338 H       
  47 H47           -3.4757     7.7672    -8.0095 H       
  48 H48           -4.4360     7.1033   -10.2614 H       
  49 H49           -6.1425     7.3425    -9.6041 H       
  50 H50           -5.6144     9.7754    -9.1184 H       
  51 H51           -3.9079     9.5363    -9.7757 H       
@<TRIPOS>BOND
   1    1    2 1
   2    1    6 1
   3    1    9 1
   4    2    3 1
   5    2   28 1
   6    2   29 1
   7    3    4 1
   8    3   30 1
   9    3   31 1
  10    4    5 1
  11    4    7 1
  12    4   32 1
  13    5    6 1
  14    5   33 1
  15    5   34 1
  16    6   35 1
  17    6   36 1
  18    7    8 3
  19    9   10 1
  20    9   37 1
  21    9   38 1
  22   10   11 1
  23   10   12 1
  24   10   39 1
  25   11   13 1
  26   11   40 1
  27   11   41 1
  28   12   42 1
  29   13   20 1
  30   14   15 1
  31   14   18 1
  32   14   23 1
  33   15   16 2
  34   16   17 1
  35   17   18 ar
  36   17   19 ar
  37   18   22 ar
  38   19   20 ar
  39   19   27 1
  40   20   21 ar
  41   21   22 ar
  42   21   43 1
  43   22   44 1
  44   23   24 1
  45   23   45 1
  46   23   46 1
  47   24   25 1
  48   24   26 1
  49   24   47 1
  50   25   26 1
  51   25   48 1
  52   25   49 1
  53   26   50 1
  54   26   51 1

#	End of record

