#	Name: ASD01410895
#	Creating user name:	WinNT
#	Creation time:	15. 06. 2019 19:18

#	Modifying user name:	WinNT
#	Modification time:	15. 06. 2019 19:18

#	Program:	/corina/corina34_cracker 3.40 0067  02.08.2006

@<TRIPOS>MOLECULE
ASD01410895
  64   66    0    0    0
SMALL
NO_CHARGES


@<TRIPOS>ATOM
   1 C1             0.3318     1.3957    -0.8200 C.ar    
   2 C2            -0.6910    -0.7148    -0.2958 C.ar    
   3 C3            -1.9472    -0.1651    -0.5102 C.ar    
   4 C4            -2.0642     1.1855    -0.8729 C.ar    
   5 C5            -0.9128     1.9603    -1.0320 C.ar    
   6 O6             1.4527     2.1508    -0.9692 O.3     
   7 C7             2.2868     1.8562    -1.9978 C.ar    
   8 N8            -3.0895    -0.9489    -0.3548 N.am    
   9 C9            -3.7585    -0.9404     0.8152 C.2     
  10 C10           -4.9427    -1.8514     1.0126 C.3     
  11 O11           -3.4076    -0.1997     1.7090 O.2     
  12 C12           -5.2888    -1.9225     2.5013 C.3     
  13 C13           -7.3443    -2.2292     0.4363 C.3     
  14 C14           -7.6903    -2.3004     1.9249 C.3     
  15 C15           -6.4910    -2.8473     2.7018 C.3     
  16 C16           -8.8926    -3.2252     2.1254 C.3     
  17 N17            1.9406     0.9310    -2.8778 N.ar    
  18 C18           -3.5627    -1.7819    -1.4632 C.3     
  19 C19            3.4937     2.5328    -2.1201 C.ar    
  20 C20            4.3355     2.2231    -3.1743 C.ar    
  21 C21            3.9381     1.2428    -4.0728 C.ar    
  22 C22            2.7217     0.6142    -3.8927 C.ar    
  23 C23           -6.1420    -1.3044     0.2358 C.3     
  24 C24            0.4403     0.0607    -0.4495 C.ar    
  25 C25           -3.8851    -0.8942    -2.6668 C.3     
  26 C26           -2.4742    -2.7862    -1.8472 C.3     
  27 O27           -2.2174    -3.6559    -0.7427 O.3     
  28 C28           -1.2108    -4.6376    -0.9977 C.3     
  29 C29            3.8811     3.5903    -1.1188 C.3     
  30 F30            5.1310     4.1189    -1.4588 F       
  31 F31            2.9252     4.6118    -1.1259 F       
  32 F32            3.9467     3.0220     0.1579 F       
  33 C33           -3.3938     1.7783    -1.1033 C.2     
  34 O34           -4.3935     1.1029    -0.9586 O.2     
  35 O35           -3.5008     3.0693    -1.4745 O.3     
  36 H36           -0.5981    -1.7540    -0.0166 H       
  37 H37           -0.9944     2.9982    -1.3196 H       
  38 H38           -4.6983    -2.8492     0.6483 H       
  39 H39           -4.4344    -2.3121     3.0547 H       
  40 H40           -5.5332    -0.9247     2.8656 H       
  41 H41           -7.0998    -3.2271     0.0720 H       
  42 H42           -8.1987    -1.8396    -0.1172 H       
  43 H43           -7.9348    -1.3026     2.2892 H       
  44 H44           -6.2466    -3.8451     2.3375 H       
  45 H45           -6.7376    -2.8980     3.7623 H       
  46 H46           -8.6481    -4.2230     1.7611 H       
  47 H47           -9.1391    -3.2759     3.1859 H       
  48 H48           -9.7470    -2.8356     1.5720 H       
  49 H49           -4.4605    -2.3187    -1.1567 H       
  50 H50            5.2799     2.7329    -3.2951 H       
  51 H51            4.5714     0.9775    -4.9065 H       
  52 H52            2.4080    -0.1495    -4.5888 H       
  53 H53           -6.3864    -0.3066     0.6001 H       
  54 H54           -5.8955    -1.2537    -0.8247 H       
  55 H55            1.4152    -0.3724    -0.2813 H       
  56 H56           -2.9809    -0.3788    -2.9907 H       
  57 H57           -4.2637    -1.5108    -3.4820 H       
  58 H58           -4.6404    -0.1604    -2.3852 H       
  59 H59           -2.8075    -3.3739    -2.7025 H       
  60 H60           -1.5613    -2.2507    -2.1078 H       
  61 H61           -0.2717    -4.1405    -1.2408 H       
  62 H62           -1.0750    -5.2575    -0.1115 H       
  63 H63           -1.5179    -5.2637    -1.8355 H       
  64 H64           -4.3937     3.4135    -1.6139 H       
@<TRIPOS>BOND
   1    1   24 ar
   2    1    6 1
   3    1    5 ar
   4    2    3 ar
   5    2   24 ar
   6    2   36 1
   7    3    4 ar
   8    3    8 1
   9    4    5 ar
  10    4   33 1
  11    5   37 1
  12    6    7 1
  13    7   19 ar
  14    7   17 ar
  15    8    9 am
  16    8   18 1
  17    9   11 2
  18    9   10 1
  19   10   12 1
  20   10   23 1
  21   10   38 1
  22   12   15 1
  23   12   39 1
  24   12   40 1
  25   13   14 1
  26   13   23 1
  27   13   41 1
  28   13   42 1
  29   14   15 1
  30   14   16 1
  31   14   43 1
  32   15   44 1
  33   15   45 1
  34   16   46 1
  35   16   47 1
  36   16   48 1
  37   17   22 ar
  38   18   25 1
  39   18   26 1
  40   18   49 1
  41   19   20 ar
  42   19   29 1
  43   20   21 ar
  44   20   50 1
  45   21   22 ar
  46   21   51 1
  47   22   52 1
  48   23   53 1
  49   23   54 1
  50   24   55 1
  51   25   56 1
  52   25   57 1
  53   25   58 1
  54   26   27 1
  55   26   59 1
  56   26   60 1
  57   27   28 1
  58   28   61 1
  59   28   62 1
  60   28   63 1
  61   29   30 1
  62   29   31 1
  63   29   32 1
  64   33   34 2
  65   33   35 1
  66   35   64 1

#	End of record

