#	Name: ASD01680067
#	Creating user name:	WinNT
#	Creation time:	15. 06. 2019 19:22

#	Modifying user name:	WinNT
#	Modification time:	15. 06. 2019 19:22

#	Program:	/corina/corina34_cracker 3.40 0067  02.08.2006

@<TRIPOS>MOLECULE
ASD01680067
  89   91    0    0    0
SMALL
NO_CHARGES


@<TRIPOS>ATOM
   1 C1            -0.2639     1.5759     0.0894 C.2     
   2 C2            -0.1535     0.0737     0.0418 C.3     
   3 C3            -0.8960    -0.4536    -1.1876 C.3     
   4 O4             0.7341     2.2563     0.0592 O.2     
   5 O5            -1.4713     2.1582     0.1597 O.3     
   6 N6             1.2581    -0.3099    -0.0385 N.am    
   7 C7             1.9915    -0.4207     1.0868 C.2     
   8 O8             1.4828    -0.2029     2.1660 O.2     
   9 C9             3.4435    -0.8153     1.0041 C.3     
  10 C10            4.0388    -0.8677     2.4126 C.3     
  11 C11            3.2774    -1.8973     3.2500 C.3     
  12 C12            3.3951    -3.2750     2.5950 C.3     
  13 C13            2.7998    -3.2225     1.1865 C.3     
  14 C14            3.5612    -2.1930     0.3491 C.3     
  15 C15            4.2049     0.2143     0.1667 C.3     
  16 N16           -0.6891    -1.8996    -1.3001 N.am    
  17 C17           -1.2530    -2.5840    -2.3150 C.2     
  18 O18           -1.9318    -2.0030    -3.1350 O.2     
  19 C19           -1.0402    -4.0714    -2.4307 C.3     
  20 O20           -1.7337    -4.5639    -3.5790 O.3     
  21 N21           -3.8823    -6.6537    -4.0074 N.am    
  22 C22           -2.7394    -6.7478    -3.0810 C.3     
  23 C23           -1.5962    -5.9718    -3.7815 C.3     
  24 C24           -1.8320    -6.3453    -5.2689 C.3     
  25 C25           -3.3702    -6.4231    -5.3661 C.3     
  26 C26           -3.7760    -7.5821    -6.2788 C.3     
  27 N27           -3.3731    -7.2837    -7.6554 N.pl3   
  28 C28           -3.5441    -8.2378    -8.6520 C.ar    
  29 C29           -4.0976    -9.4717    -8.3350 C.ar    
  30 C30           -4.2623   -10.4151    -9.3413 C.ar    
  31 C31           -3.8625   -10.0813   -10.6353 C.ar    
  32 C32           -3.3211    -8.8365   -10.8729 C.ar    
  33 N33           -3.1824    -7.9592    -9.8957 N.ar    
  34 O34           -4.7990   -11.6325    -9.0718 O.3     
  35 C35           -4.9312   -12.5402   -10.1675 C.3     
  36 C36           -5.1813    -6.7664    -3.6662 C.2     
  37 O37           -6.0449    -6.5807    -4.4972 O.2     
  38 C38           -5.5607    -7.1230    -2.2520 C.3     
  39 C39           -7.0848    -7.1858    -2.1332 C.3     
  40 C40           -7.6276    -8.2488    -3.0904 C.3     
  41 C41           -7.4700    -7.5479    -0.6975 C.3     
  42 C42           -7.6809    -5.8234    -2.4930 C.3     
  43 H43           -0.5948    -0.3518     0.9431 H       
  44 H44           -1.9612    -0.2459    -1.0855 H       
  45 H45           -0.5139     0.0388    -2.0818 H       
  46 H46           -1.4916     3.1245     0.1880 H       
  47 H47            1.6650    -0.4841    -0.9017 H       
  48 H48            5.0891    -1.1531     2.3528 H       
  49 H49            3.9550     0.1137     2.8793 H       
  50 H50            3.7015    -1.9347     4.2535 H       
  51 H51            2.2271    -1.6119     3.3098 H       
  52 H52            4.4453    -3.5604     2.5352 H       
  53 H53            2.8526    -4.0085     3.1916 H       
  54 H54            2.8836    -4.2040     0.7199 H       
  55 H55            1.7496    -2.9371     1.2463 H       
  56 H56            3.1371    -2.1556    -0.6543 H       
  57 H57            4.6115    -2.4783     0.2893 H       
  58 H58            4.1211     1.1958     0.6334 H       
  59 H59            5.2552    -0.0711     0.1069 H       
  60 H60            3.7809     0.2516    -0.8367 H       
  61 H61           -0.1462    -2.3643    -0.6442 H       
  62 H62            0.0250    -4.2792    -2.5328 H       
  63 H63           -1.4223    -4.5639    -1.5365 H       
  64 H64           -2.9851    -6.2817    -2.1268 H       
  65 H65           -2.4555    -7.7898    -2.9333 H       
  66 H66           -0.6213    -6.3201    -3.4404 H       
  67 H67           -1.4427    -5.5692    -5.9278 H       
  68 H68           -1.3817    -7.3107    -5.5001 H       
  69 H69           -3.7648    -5.4852    -5.7567 H       
  70 H70           -3.2838    -8.4960    -5.9462 H       
  71 H71           -4.8569    -7.7158    -6.2375 H       
  72 H72           -2.9870    -6.4205    -7.8714 H       
  73 H73           -4.3952    -9.6945    -7.3210 H       
  74 H74           -3.9756   -10.7906   -11.4418 H       
  75 H75           -3.0100    -8.5733   -11.8731 H       
  76 H76           -5.3724   -13.4727    -9.8156 H       
  77 H77           -5.5739   -12.0990   -10.9294 H       
  78 H78           -3.9482   -12.7413   -10.5934 H       
  79 H79           -5.1360    -8.0936    -1.9956 H       
  80 H80           -5.1740    -6.3657    -1.5700 H       
  81 H81           -7.2029    -9.2194    -2.8341 H       
  82 H82           -8.7134    -8.2936    -3.0058 H       
  83 H83           -7.3532    -7.9909    -4.1133 H       
  84 H84           -7.0833    -6.7906    -0.0155 H       
  85 H85           -8.5558    -7.5926    -0.6128 H       
  86 H86           -7.0453    -8.5185    -0.4411 H       
  87 H87           -7.4065    -5.5654    -3.5159 H       
  88 H88           -8.7667    -5.8681    -2.4084 H       
  89 H89           -7.2942    -5.0661    -1.8111 H       
@<TRIPOS>BOND
   1    1    2 1
   2    1    4 2
   3    1    5 1
   4    2    3 1
   5    2    6 1
   6    2   43 1
   7    3   16 1
   8    3   44 1
   9    3   45 1
  10    5   46 1
  11    6    7 am
  12    6   47 1
  13    7    8 2
  14    7    9 1
  15    9   10 1
  16    9   14 1
  17    9   15 1
  18   10   11 1
  19   10   48 1
  20   10   49 1
  21   11   12 1
  22   11   50 1
  23   11   51 1
  24   12   13 1
  25   12   52 1
  26   12   53 1
  27   13   14 1
  28   13   54 1
  29   13   55 1
  30   14   56 1
  31   14   57 1
  32   15   58 1
  33   15   59 1
  34   15   60 1
  35   16   17 am
  36   16   61 1
  37   17   18 2
  38   17   19 1
  39   19   20 1
  40   19   62 1
  41   19   63 1
  42   20   23 1
  43   21   22 1
  44   21   25 1
  45   21   36 am
  46   22   23 1
  47   22   64 1
  48   22   65 1
  49   23   24 1
  50   23   66 1
  51   24   25 1
  52   24   67 1
  53   24   68 1
  54   25   26 1
  55   25   69 1
  56   26   27 1
  57   26   70 1
  58   26   71 1
  59   27   28 1
  60   27   72 1
  61   28   29 ar
  62   28   33 ar
  63   29   30 ar
  64   29   73 1
  65   30   31 ar
  66   30   34 1
  67   31   32 ar
  68   31   74 1
  69   32   33 ar
  70   32   75 1
  71   34   35 1
  72   35   76 1
  73   35   77 1
  74   35   78 1
  75   36   37 2
  76   36   38 1
  77   38   39 1
  78   38   79 1
  79   38   80 1
  80   39   40 1
  81   39   41 1
  82   39   42 1
  83   40   81 1
  84   40   82 1
  85   40   83 1
  86   41   84 1
  87   41   85 1
  88   41   86 1
  89   42   87 1
  90   42   88 1
  91   42   89 1

#	End of record

