#	Name: ASD01916055
#	Creating user name:	WinNT
#	Creation time:	15. 06. 2019 20:06

#	Modifying user name:	WinNT
#	Modification time:	15. 06. 2019 20:06

#	Program:	/corina/corina34_cracker 3.40 0067  02.08.2006

@<TRIPOS>MOLECULE
ASD01916055
  42   44    0    0    0
SMALL
NO_CHARGES


@<TRIPOS>ATOM
   1 C1            -0.0169     1.3968     0.0097 C.ar    
   2 C2             0.0021    -0.0041     0.0020 C.ar    
   3 N3            -1.1459    -0.6583     0.0095 N.ar    
   4 C4            -2.2953    -0.0124     0.0240 C.ar    
   5 C5            -3.5770    -0.8051     0.0320 C.3     
   6 C6             1.2009     2.1501     0.0021 C.1     
   7 C7             2.1994     2.7676    -0.0041 C.1     
   8 C8             3.4172     3.5209    -0.0117 C.ar    
   9 C9             3.3788     4.9177    -0.0038 C.ar    
  10 C10            5.8186     3.5948    -0.0285 C.ar    
  11 C11            4.5559     5.6365    -0.0112 C.ar    
  12 N12           -2.3598     1.3046     0.0321 N.ar    
  13 C13           -1.2618     2.0396     0.0192 C.ar    
  14 C14            4.6498     2.8626    -0.0212 C.ar    
  15 C15            5.7727     4.9778    -0.0269 C.ar    
  16 C16           -4.4302    -0.4671    -1.2125 C.3     
  17 C17           -4.4461    -0.3947     1.2003 C.2     
  18 N18           -5.7185    -0.2366     0.7968 N.am    
  19 C19           -5.8625    -0.5194    -0.6361 C.3     
  20 C20           -6.8201     0.1658     1.6747 C.3     
  21 O21           -4.0522    -0.2325     2.3358 O.2     
  22 C22           -6.7396     0.5439    -1.3002 C.3     
  23 C23           -6.4661    -1.9100    -0.8433 C.3     
  24 H24            0.9395    -0.5403    -0.0102 H       
  25 H25           -3.3635    -1.8733     0.0695 H       
  26 H26            2.4298     5.4331     0.0077 H       
  27 H27            6.7720     3.0874    -0.0408 H       
  28 H28            4.5278     6.7161    -0.0052 H       
  29 H29           -1.3228     3.1178     0.0263 H       
  30 H30            4.6871     1.7833    -0.0225 H       
  31 H31            6.6912     5.5459    -0.0327 H       
  32 H32           -4.1964     0.5296    -1.5867 H       
  33 H33           -4.2960    -1.2164    -1.9926 H       
  34 H34           -6.4431     0.3126     2.6868 H       
  35 H35           -7.2538     1.0969     1.3099 H       
  36 H36           -7.5831    -0.6126     1.6805 H       
  37 H37           -6.2930     1.5272    -1.1526 H       
  38 H38           -6.8169     0.3364    -2.3674 H       
  39 H39           -7.7337     0.5256    -0.8535 H       
  40 H40           -7.4582    -1.9461    -0.3933 H       
  41 H41           -6.5434    -2.1172    -1.9106 H       
  42 H42           -5.8266    -2.6573    -0.3735 H       
@<TRIPOS>BOND
   1    1    2 ar
   2    1    6 1
   3    1   13 ar
   4    2    3 ar
   5    2   24 1
   6    3    4 ar
   7    4   12 ar
   8    4    5 1
   9    5   16 1
  10    5   17 1
  11    5   25 1
  12    6    7 3
  13    7    8 1
  14    8    9 ar
  15    8   14 ar
  16    9   11 ar
  17    9   26 1
  18   10   15 ar
  19   10   14 ar
  20   10   27 1
  21   11   15 ar
  22   11   28 1
  23   12   13 ar
  24   13   29 1
  25   14   30 1
  26   15   31 1
  27   16   19 1
  28   16   32 1
  29   16   33 1
  30   17   18 am
  31   17   21 2
  32   18   19 1
  33   18   20 1
  34   19   22 1
  35   19   23 1
  36   20   34 1
  37   20   35 1
  38   20   36 1
  39   22   37 1
  40   22   38 1
  41   22   39 1
  42   23   40 1
  43   23   41 1
  44   23   42 1

#	End of record

