#	Name: ASD01911450
#	Creating user name:	WinNT
#	Creation time:	15. 06. 2019 19:57

#	Modifying user name:	WinNT
#	Modification time:	15. 06. 2019 19:57

#	Program:	/corina/corina34_cracker 3.40 0067  02.08.2006

@<TRIPOS>MOLECULE
ASD01911450
  32   33    0    0    0
SMALL
NO_CHARGES


@<TRIPOS>ATOM
   1 C1            -0.0188     1.5367     0.0105 C.3     
   2 C2             0.0021    -0.0041     0.0020 C.3     
   3 N3             1.4352    -0.3349    -0.0134 N.am    
   4 O4             1.3899     1.9086    -0.0010 O.3     
   5 C5             1.9701    -1.6224    -0.0259 C.ar    
   6 C6             1.1222    -2.7194    -0.1294 C.ar    
   7 C7             1.6658    -3.9915    -0.1411 C.ar    
   8 C8             3.0454    -4.1233    -0.0484 C.ar    
   9 C9             3.8275    -2.9894     0.0519 C.ar    
  10 N10            3.2805    -1.7886     0.0555 N.ar    
  11 I11            3.9305    -6.0221    -0.0599 I       
  12 C12           -0.7246     2.0704    -1.2377 C.3     
  13 C13            2.1430     0.8030    -0.0141 C.2     
  14 O14            3.3577     0.8283    -0.0249 O.2     
  15 C15           -2.1646     1.5543    -1.2693 C.3     
  16 C16           -0.7317     3.6000    -1.2048 C.3     
  17 C17            0.0166     1.5905    -2.4872 C.3     
  18 H18           -0.5045     1.9073     0.9132 H       
  19 H19           -0.4722    -0.3984     0.9007 H       
  20 H20           -0.4893    -0.3887    -0.8917 H       
  21 H21            0.0534    -2.5804    -0.1994 H       
  22 H22            1.0319    -4.8624    -0.2201 H       
  23 H23            4.9006    -3.0866     0.1246 H       
  24 H24           -2.6927     1.8961    -0.3791 H       
  25 H25           -2.6674     1.9345    -2.1585 H       
  26 H26           -2.1596     0.4645    -1.2927 H       
  27 H27            0.2942     3.9677    -1.1823 H       
  28 H28           -1.2345     3.9802    -2.0940 H       
  29 H29           -1.2598     3.9418    -0.3146 H       
  30 H30            0.0217     0.5008    -2.5106 H       
  31 H31           -0.4862     1.9708    -3.3764 H       
  32 H32            1.0425     1.9582    -2.4647 H       
@<TRIPOS>BOND
   1    1    2 1
   2    1    4 1
   3    1   12 1
   4    1   18 1
   5    2    3 1
   6    2   19 1
   7    2   20 1
   8    3    5 1
   9    3   13 am
  10    4   13 1
  11    5    6 ar
  12    5   10 ar
  13    6    7 ar
  14    6   21 1
  15    7    8 ar
  16    7   22 1
  17    8    9 ar
  18    8   11 1
  19    9   10 ar
  20    9   23 1
  21   12   15 1
  22   12   16 1
  23   12   17 1
  24   13   14 2
  25   15   24 1
  26   15   25 1
  27   15   26 1
  28   16   27 1
  29   16   28 1
  30   16   29 1
  31   17   30 1
  32   17   31 1
  33   17   32 1

#	End of record

