#	Name: ASD00990038
#	Creating user name:	WinNT
#	Creation time:	15. 06. 2019 18:54

#	Modifying user name:	WinNT
#	Modification time:	15. 06. 2019 18:54

#	Program:	/corina/corina34_cracker 3.40 0067  02.08.2006

@<TRIPOS>MOLECULE
ASD00990038
  41   42    0    0    0
SMALL
NO_CHARGES


@<TRIPOS>ATOM
   1 C1            -0.0170     1.4008     0.0097 C.ar    
   2 C2             0.0021    -0.0041     0.0020 C.ar    
   3 C3            -1.1927    -0.7111     0.0096 C.ar    
   4 C4            -2.3901    -0.0281     0.0247 C.ar    
   5 C5            -2.4084     1.3595     0.0324 C.ar    
   6 C6            -1.2427     2.0716     0.0301 C.ar    
   7 N7             1.2765     1.8139    -0.0004 N.2     
   8 C8             2.0658     0.7797    -0.0135 C.2     
   9 N9             1.3340    -0.3670    -0.0126 N.pl3   
  10 C10            3.5714     0.8430    -0.0275 C.3     
  11 N11            4.0411     0.9917    -1.4072 N.am    
  12 C12            4.2240     2.3282    -1.9786 C.3     
  13 C13           -1.2785     3.5782     0.0389 C.3     
  14 F14           -2.6082     4.0130     0.0485 F       
  15 F15           -0.6242     4.0536     1.1804 F       
  16 F16           -0.6365     4.0666    -1.1041 F       
  17 O17            4.7365     0.0357    -3.4187 O.3     
  18 C18            5.0008    -1.1844    -4.1602 C.3     
  19 C19            3.7188    -2.0147    -4.2497 C.3     
  20 C20            5.4789    -0.8309    -5.5700 C.3     
  21 C21            6.0832    -1.9931    -3.4424 C.3     
  22 C22            4.3049    -0.1010    -2.1507 C.2     
  23 O23            4.1532    -1.2095    -1.6768 O.2     
  24 H24           -1.1841    -1.7910     0.0034 H       
  25 H25           -3.3204    -0.5768     0.0303 H       
  26 H26           -3.3537     1.8816     0.0438 H       
  27 H27            1.6832    -1.2719    -0.0208 H       
  28 H28            3.9048     1.6958     0.5637 H       
  29 H29            3.9776    -0.0749     0.3976 H       
  30 H30            5.2419     2.6685    -1.7883 H       
  31 H31            4.0485     2.2908    -3.0537 H       
  32 H32            3.5178     3.0197    -1.5190 H       
  33 H33            2.9477    -1.4385    -4.7610 H       
  34 H34            3.9172    -2.9306    -4.8063 H       
  35 H35            3.3782    -2.2664    -3.2453 H       
  36 H36            6.3922    -0.2394    -5.5063 H       
  37 H37            5.6773    -1.7468    -6.1267 H       
  38 H38            4.7078    -0.2548    -6.0814 H       
  39 H39            5.7426    -2.2449    -2.4381 H       
  40 H40            6.2816    -2.9090    -3.9991 H       
  41 H41            6.9965    -1.4016    -3.3787 H       
@<TRIPOS>BOND
   1    1    2 ar
   2    1    7 1
   3    1    6 ar
   4    2    3 ar
   5    2    9 1
   6    3    4 ar
   7    3   24 1
   8    4    5 ar
   9    4   25 1
  10    5    6 ar
  11    5   26 1
  12    6   13 1
  13    7    8 2
  14    8    9 1
  15    8   10 1
  16    9   27 1
  17   10   11 1
  18   10   28 1
  19   10   29 1
  20   11   12 1
  21   11   22 am
  22   12   30 1
  23   12   31 1
  24   12   32 1
  25   13   14 1
  26   13   15 1
  27   13   16 1
  28   17   18 1
  29   17   22 1
  30   18   19 1
  31   18   20 1
  32   18   21 1
  33   19   33 1
  34   19   34 1
  35   19   35 1
  36   20   36 1
  37   20   37 1
  38   20   38 1
  39   21   39 1
  40   21   40 1
  41   21   41 1
  42   22   23 2

#	End of record

