#	Name: ASD09080076
#	Creating user name:	WinNT
#	Creation time:	15. 06. 2019 21:20

#	Modifying user name:	WinNT
#	Modification time:	15. 06. 2019 21:20

#	Program:	/corina/corina34_cracker 3.40 0067  02.08.2006

@<TRIPOS>MOLECULE
ASD09080076
  50   51    0    0    0
SMALL
NO_CHARGES


@<TRIPOS>ATOM
   1 C1            -0.4213     1.5399     0.8769 C.ar    
   2 C2            -0.3750     0.1650     0.7505 C.ar    
   3 C3            -1.5518    -0.5782     0.8140 C.ar    
   4 C4            -2.7702     0.0700     1.0047 C.ar    
   5 C5            -2.8061     1.4453     1.1300 C.ar    
   6 C6            -1.6337     2.1787     1.0716 C.ar    
   7 Cl7            1.0441     2.4672     0.7987 Cl      
   8 Cl8           -4.3236     2.2545     1.3672 Cl      
   9 C9            -1.5076    -2.0552     0.6783 C.ar    
  10 C10           -2.6843    -2.7987     0.7417 C.ar    
  11 C11           -0.2899    -2.7032     0.4814 C.ar    
  12 C12           -0.2547    -4.0772     0.3559 C.ar    
  13 C13           -1.4252    -4.8109     0.4253 C.ar    
  14 C14           -2.6375    -4.1722     0.6150 C.ar    
  15 C15           -1.3804    -6.3109     0.2876 C.3     
  16 C16           -1.2015    -6.9447     1.6686 C.3     
  17 C17           -1.2807    -8.4676     1.5450 C.3     
  18 N18            0.1045    -6.5663     2.2141 N.am    
  19 C19           -2.6897    -8.8710     1.1056 C.3     
  20 O20           -0.3323    -8.9168     0.5750 O.3     
  21 C21           -2.8061   -10.3735     1.1091 C.2     
  22 O22           -2.0709   -11.1056     0.2575 O.3     
  23 O23           -3.5613   -10.9191     1.8784 O.2     
  24 C24            0.3036    -6.5658     3.5471 C.2     
  25 C25            1.6470    -6.1766     4.1082 C.3     
  26 O26           -0.5985    -6.8785     4.2950 O.2     
  27 O27            1.6080    -6.2539     5.5345 O.3     
  28 C28            2.8390    -5.9027     6.1695 C.3     
  29 O29           -3.6475    -8.3169     2.0097 O.3     
  30 H30            0.5719    -0.3330     0.6025 H       
  31 H31           -3.6851    -0.5017     1.0542 H       
  32 H32           -1.6659     3.2538     1.1699 H       
  33 H33           -3.6313    -2.3011     0.8901 H       
  34 H34            0.6246    -2.1313     0.4267 H       
  35 H35            0.6886    -4.5805     0.2029 H       
  36 H36           -3.5484    -4.7499     0.6688 H       
  37 H37           -2.3117    -6.6630    -0.1559 H       
  38 H38           -0.5441    -6.5921    -0.3523 H       
  39 H39           -1.9892    -6.5927     2.3348 H       
  40 H40           -1.0568    -8.9226     2.5098 H       
  41 H41            0.8260    -6.3162     1.6159 H       
  42 H42           -2.8785    -8.4943     0.1003 H       
  43 H43           -0.4711    -8.5511    -0.3094 H       
  44 H44           -2.1798   -12.0656     0.2969 H       
  45 H45            2.4100    -6.8560     3.7283 H       
  46 H46            1.8854    -5.1569     3.8059 H       
  47 H47            3.6268    -6.5764     5.8324 H       
  48 H48            3.1022    -4.8773     5.9100 H       
  49 H49            2.7271    -5.9867     7.2505 H       
  50 H50           -3.5395    -8.6093     2.9251 H       
@<TRIPOS>BOND
   1    1    2 ar
   2    1    7 1
   3    1    6 ar
   4    2    3 ar
   5    2   30 1
   6    3    4 ar
   7    3    9 1
   8    4    5 ar
   9    4   31 1
  10    5    6 ar
  11    5    8 1
  12    6   32 1
  13    9   10 ar
  14    9   11 ar
  15   10   14 ar
  16   10   33 1
  17   11   12 ar
  18   11   34 1
  19   12   13 ar
  20   12   35 1
  21   13   14 ar
  22   13   15 1
  23   14   36 1
  24   15   16 1
  25   15   37 1
  26   15   38 1
  27   16   17 1
  28   16   18 1
  29   16   39 1
  30   17   19 1
  31   17   20 1
  32   17   40 1
  33   18   24 am
  34   18   41 1
  35   19   21 1
  36   19   29 1
  37   19   42 1
  38   20   43 1
  39   21   22 1
  40   21   23 2
  41   22   44 1
  42   24   25 1
  43   24   26 2
  44   25   27 1
  45   25   45 1
  46   25   46 1
  47   27   28 1
  48   28   47 1
  49   28   48 1
  50   28   49 1
  51   29   50 1

#	End of record

