#	Name: ASD09116396
#	Creating user name:	WinNT
#	Creation time:	15. 06. 2019 21:21

#	Modifying user name:	WinNT
#	Modification time:	15. 06. 2019 21:21

#	Program:	/corina/corina34_cracker 3.40 0067  02.08.2006

@<TRIPOS>MOLECULE
ASD09116396
  67   72    0    0    0
SMALL
NO_CHARGES


@<TRIPOS>ATOM
   1 N1            -0.0038     1.5411     1.4857 N.2     
   2 N2             0.0161     0.1591     1.7334 N.pl3   
   3 C3             1.2317     1.9030     1.2351 C.2     
   4 N4             2.0249     0.8279     1.3112 N.2     
   5 C5             1.3061    -0.2327     1.6112 C.2     
   6 N6             1.7838    -1.5192     1.7736 N.pl3   
   7 C7            -1.0781    -0.6507     2.0445 C.ar    
   8 N8             1.6512     3.1994     0.9371 N.pl3   
   9 C9             3.0161     3.4787     0.7966 C.ar    
  10 C10            3.4342     4.4953    -0.0508 C.ar    
  11 C11            3.9534     2.7431     1.5090 C.ar    
  12 C12            5.2990     3.0204     1.3717 C.ar    
  13 C13            5.7238     4.0358     0.5216 C.ar    
  14 C14            4.7857     4.7735    -0.1912 C.ar    
  15 N15           -1.0407    -1.9472     1.7767 N.ar    
  16 N16           -2.0228    -2.7349     2.0347 N.ar    
  17 C17           -3.1422    -2.2961     2.5877 C.ar    
  18 C18           -3.2633    -0.9380     2.9234 C.ar    
  19 C19           -2.2115    -0.0951     2.6442 C.ar    
  20 C20           -4.2897    -3.1952     2.8416 C.ar    
  21 C21           -5.5675    -2.7882     2.4292 C.ar    
  22 O22           -5.7163    -1.5910     1.8084 O.3     
  23 C23           -5.6707    -0.4128     2.6015 C.3     
  24 C24           -4.5159    -0.4511     3.5990 C.3     
  25 C25           -4.1228    -4.4202     3.4751 C.ar    
  26 C26           -5.2187    -5.2318     3.6972 C.ar    
  27 C27           -6.4785    -4.8285     3.2915 C.ar    
  28 C28           -6.6552    -3.6112     2.6597 C.ar    
  29 N29            7.0981     4.2926     0.4194 N.3     
  30 C30            7.4333     5.0252    -0.8072 C.3     
  31 C31            6.5066     6.2427    -0.9192 C.3     
  32 O32            5.1634     5.7675    -1.0415 O.3     
  33 C33            7.8747     3.0497     0.5191 C.3     
  34 C34            9.3559     3.3537     0.2856 C.3     
  35 C35           10.1648     2.0592     0.3895 C.3     
  36 C36           11.6260     2.3409     0.0338 C.3     
  37 C37           10.0827     1.5198     1.8189 C.3     
  38 H38            2.7302    -1.7024     1.6653 H       
  39 H39            1.1728    -2.2390     1.9960 H       
  40 H40            0.9975     3.9076     0.8272 H       
  41 H41            2.7055     5.0708    -0.6023 H       
  42 H42            3.6299     1.9537     2.1713 H       
  43 H43            6.0254     2.4460     1.9275 H       
  44 H44           -2.2633     0.9590     2.8733 H       
  45 H45           -5.5482     0.4512     1.9484 H       
  46 H46           -6.6092    -0.3147     3.1471 H       
  47 H47           -4.7689    -1.1233     4.4189 H       
  48 H48           -4.3470     0.5504     3.9947 H       
  49 H49           -3.1403    -4.7371     3.7924 H       
  50 H50           -5.0913    -6.1848     4.1890 H       
  51 H51           -7.3298    -5.4690     3.4694 H       
  52 H52           -7.6417    -3.3035     2.3458 H       
  53 H53            8.4704     5.3577    -0.7630 H       
  54 H54            7.2909     4.3764    -1.6714 H       
  55 H55            6.5960     6.8577    -0.0238 H       
  56 H56            6.7732     6.8294    -1.7984 H       
  57 H57            7.7444     2.6185     1.5116 H       
  58 H58            7.5261     2.3421    -0.2331 H       
  59 H59            9.4863     3.7850    -0.7069 H       
  60 H60            9.7045     4.0614     1.0379 H       
  61 H61            9.7586     1.3205    -0.3014 H       
  62 H62           12.0322     3.0796     0.7248 H       
  63 H63           12.2023     1.4187     0.1078 H       
  64 H64           11.6845     2.7252    -0.9845 H       
  65 H65            9.0417     1.3191     2.0723 H       
  66 H66           10.6590     0.5976     1.8929 H       
  67 H67           10.4889     2.2585     2.5099 H       
@<TRIPOS>BOND
   1    1    2 1
   2    1    3 2
   3    2    7 1
   4    2    5 1
   5    3    4 1
   6    3    8 1
   7    4    5 2
   8    5    6 1
   9    6   38 1
  10    6   39 1
  11    7   15 ar
  12    7   19 ar
  13    8    9 1
  14    8   40 1
  15    9   10 ar
  16    9   11 ar
  17   10   14 ar
  18   10   41 1
  19   11   12 ar
  20   11   42 1
  21   12   13 ar
  22   12   43 1
  23   13   14 ar
  24   13   29 1
  25   14   32 1
  26   15   16 ar
  27   16   17 ar
  28   17   18 ar
  29   17   20 1
  30   18   19 ar
  31   18   24 1
  32   19   44 1
  33   20   21 ar
  34   20   25 ar
  35   21   22 1
  36   21   28 ar
  37   22   23 1
  38   23   24 1
  39   23   45 1
  40   23   46 1
  41   24   47 1
  42   24   48 1
  43   25   26 ar
  44   25   49 1
  45   26   27 ar
  46   26   50 1
  47   27   28 ar
  48   27   51 1
  49   28   52 1
  50   29   30 1
  51   29   33 1
  52   30   31 1
  53   30   53 1
  54   30   54 1
  55   31   32 1
  56   31   55 1
  57   31   56 1
  58   33   34 1
  59   33   57 1
  60   33   58 1
  61   34   35 1
  62   34   59 1
  63   34   60 1
  64   35   36 1
  65   35   37 1
  66   35   61 1
  67   36   62 1
  68   36   63 1
  69   36   64 1
  70   37   65 1
  71   37   66 1
  72   37   67 1

#	End of record

