#	Name: ASD01410165
#	Creating user name:	WinNT
#	Creation time:	15. 06. 2019 19:16

#	Modifying user name:	WinNT
#	Modification time:	15. 06. 2019 19:16

#	Program:	/corina/corina34_cracker 3.40 0067  02.08.2006

@<TRIPOS>MOLECULE
ASD01410165
  44   47    0    0    0
SMALL
NO_CHARGES


@<TRIPOS>ATOM
   1 C1            -0.0187     1.5258     0.0104 C.3     
   2 C2             0.0021    -0.0041     0.0020 C.3     
   3 C3             0.7182    -0.4975    -1.2568 C.3     
   4 C4             2.1536     0.0321    -1.2676 C.3     
   5 C5             2.1328     1.5619    -1.2592 C.3     
   6 C6             1.4167     2.0553    -0.0004 C.3     
   7 C7             3.8644     4.4939     2.5393 C.ar    
   8 C8             2.6615     3.8947     2.1627 C.ar    
   9 C9             2.1391     2.8510     2.9281 C.ar    
  10 C10            2.8139     2.4183     4.0509 C.ar    
  11 C11            4.0059     3.0166     4.4188 C.ar    
  12 C12            4.5292     4.0517     3.6644 C.ar    
  13 C13            0.8033     4.3920    -0.9723 C.ar    
  14 C14            1.0231     5.7231    -0.5607 C.ar    
  15 C15            0.5434     6.7626    -1.3436 C.ar    
  16 C16           -0.1447     6.4419    -2.5197 C.ar    
  17 C17           -0.3242     5.0950    -2.8634 C.ar    
  18 N18            0.1449     4.1339    -2.1050 N.ar    
  19 C19            1.3963     3.5622     0.0079 C.2     
  20 C20            1.9433     4.3638     0.9584 C.2     
  21 N21            1.7243     5.6780     0.6260 N.pl3   
  22 C22           -0.6752     7.5093    -3.3870 C.2     
  23 O23           -0.5162     8.6748    -3.0825 O.2     
  24 O24           -1.3365     7.1924    -4.5176 O.3     
  25 H25           -0.5459     1.8868    -0.8726 H       
  26 H26           -0.5289     1.8773     0.9072 H       
  27 H27            0.5293    -0.3651     0.8851 H       
  28 H28           -1.0205    -0.3814     0.0098 H       
  29 H29            0.7330    -1.5874    -1.2628 H       
  30 H30            0.1910    -0.1364    -2.1398 H       
  31 H31            2.6808    -0.3290    -0.3846 H       
  32 H32            2.6638    -0.3194    -2.1644 H       
  33 H33            3.1554     1.9392    -1.2670 H       
  34 H34            1.6057     1.9230    -2.1423 H       
  35 H35            1.9439     1.6943     0.8826 H       
  36 H36            4.2761     5.2990     1.9488 H       
  37 H37            1.2085     2.3834     2.6422 H       
  38 H38            2.4105     1.6110     4.6443 H       
  39 H39            4.5301     2.6744     5.2989 H       
  40 H40            5.4601     4.5145     3.9569 H       
  41 H41            0.6963     7.7916    -1.0536 H       
  42 H42           -0.8547     4.8448    -3.7703 H       
  43 H43            2.0145     6.4472     1.1408 H       
  44 H44           -1.6659     7.9265    -5.0540 H       
@<TRIPOS>BOND
   1    1    2 1
   2    1    6 1
   3    1   25 1
   4    1   26 1
   5    2    3 1
   6    2   27 1
   7    2   28 1
   8    3    4 1
   9    3   29 1
  10    3   30 1
  11    4    5 1
  12    4   31 1
  13    4   32 1
  14    5    6 1
  15    5   33 1
  16    5   34 1
  17    6   19 1
  18    6   35 1
  19    7    8 ar
  20    7   12 ar
  21    7   36 1
  22    8    9 ar
  23    8   20 1
  24    9   10 ar
  25    9   37 1
  26   10   11 ar
  27   10   38 1
  28   11   12 ar
  29   11   39 1
  30   12   40 1
  31   13   19 1
  32   13   14 ar
  33   13   18 ar
  34   14   15 ar
  35   14   21 1
  36   15   16 ar
  37   15   41 1
  38   16   17 ar
  39   16   22 1
  40   17   18 ar
  41   17   42 1
  42   19   20 2
  43   20   21 1
  44   21   43 1
  45   22   23 2
  46   22   24 1
  47   24   44 1

#	End of record

