#	Name: ASD08150979
#	Creating user name:	WinNT
#	Creation time:	15. 06. 2019 21:16

#	Modifying user name:	WinNT
#	Modification time:	15. 06. 2019 21:16

#	Program:	/corina/corina34_cracker 3.40 0067  02.08.2006

@<TRIPOS>MOLECULE
ASD08150979
  44   48    0    0    0
SMALL
NO_CHARGES


@<TRIPOS>ATOM
   1 N1            -0.2868     1.4164     0.0188 N.2     
   2 C2            -0.6985     0.2821     0.5059 C.2     
   3 N3            -0.3784     0.1994     1.8284 N.pl3   
   4 C4             0.2706     1.3596     2.1677 C.ar    
   5 N5             0.8066     1.8433     3.2834 N.ar    
   6 C6             1.3787     3.0288     3.2938 C.ar    
   7 N7             1.4509     3.7905     2.2176 N.ar    
   8 C8             0.9428     3.3909     1.0563 C.ar    
   9 C9             0.3221     2.1319     0.9948 C.ar    
  10 N10            1.0229     4.1964    -0.0662 N.pl3   
  11 C11            1.6735     5.5064     0.0171 C.3     
  12 C12            2.1716     5.9176    -1.3699 C.3     
  13 N13            0.3431     9.8745     2.1670 N.pl3   
  14 N14           -0.9429    10.3716     2.4110 N.2     
  15 C15           -1.8307     9.5183     1.9899 C.2     
  16 C16           -1.1578     8.4002     1.4395 C.ar    
  17 C17           -1.5945     7.2046     0.8501 C.ar    
  18 C18           -0.6755     6.2851     0.3992 C.ar    
  19 C19            0.6850     6.5272     0.5189 C.ar    
  20 C20            1.1423     7.7025     1.0979 C.ar    
  21 C21            0.2197     8.6512     1.5642 C.ar    
  22 C22            2.5980     7.9546     1.2226 C.ar    
  23 C23            3.1884     9.0051     0.5221 C.ar    
  24 C24            4.5458     9.2354     0.6428 C.ar    
  25 C25            5.3181     8.4234     1.4580 C.ar    
  26 C26            4.7358     7.3804     2.1543 C.ar    
  27 C27            3.3800     7.1454     2.0452 C.ar    
  28 F28            5.1205    10.2529    -0.0351 F       
  29 Cl29          -3.2933     6.8841     0.6917 Cl      
  30 H30           -1.2176    -0.4812    -0.0548 H       
  31 H31           -0.5739    -0.5433     2.4209 H       
  32 H32            1.8046     3.3923     4.2173 H       
  33 H33            0.6483     3.8936    -0.9082 H       
  34 H34            2.5177     5.4497     0.7043 H       
  35 H35            1.3274     5.9742    -2.0570 H       
  36 H36            2.6557     6.8922    -1.3079 H       
  37 H37            2.8866     5.1792    -1.7328 H       
  38 H38            1.1766    10.3209     2.3836 H       
  39 H39           -2.9019     9.6418     2.0506 H       
  40 H40           -1.0170     5.3660    -0.0535 H       
  41 H41            2.5866     9.6375    -0.1138 H       
  42 H42            6.3787     8.6057     1.5495 H       
  43 H43            5.3425     6.7505     2.7880 H       
  44 H44            2.9262     6.3330     2.5934 H       
@<TRIPOS>BOND
   1    1    2 2
   2    1    9 1
   3    2    3 1
   4    2   30 1
   5    3    4 1
   6    3   31 1
   7    4    5 ar
   8    4    9 ar
   9    5    6 ar
  10    6    7 ar
  11    6   32 1
  12    7    8 ar
  13    8    9 ar
  14    8   10 1
  15   10   11 1
  16   10   33 1
  17   11   12 1
  18   11   19 1
  19   11   34 1
  20   12   35 1
  21   12   36 1
  22   12   37 1
  23   13   14 1
  24   13   21 1
  25   13   38 1
  26   14   15 2
  27   15   16 1
  28   15   39 1
  29   16   17 ar
  30   16   21 ar
  31   17   18 ar
  32   17   29 1
  33   18   19 ar
  34   18   40 1
  35   19   20 ar
  36   20   21 ar
  37   20   22 1
  38   22   23 ar
  39   22   27 ar
  40   23   24 ar
  41   23   41 1
  42   24   25 ar
  43   24   28 1
  44   25   26 ar
  45   25   42 1
  46   26   27 ar
  47   26   43 1
  48   27   44 1

#	End of record

