#	Name: ASD01901623
#	Creating user name:	WinNT
#	Creation time:	15. 06. 2019 19:54

#	Modifying user name:	WinNT
#	Modification time:	15. 06. 2019 19:54

#	Program:	/corina/corina34_cracker 3.40 0067  02.08.2006

@<TRIPOS>MOLECULE
ASD01901623
  39   43    0    0    0
SMALL
NO_CHARGES


@<TRIPOS>ATOM
   1 C1            -0.0287     1.1152    -0.1823 C.3     
   2 N2            -0.2782    -0.3240    -0.0702 N.pl3   
   3 N3            -0.5501    -1.1963    -1.1311 N.2     
   4 C4            -0.7201    -2.4036    -0.6765 C.2     
   5 C5            -1.0295    -3.6206    -1.5097 C.3     
   6 C6            -1.3562    -3.4003    -2.9880 C.3     
   7 C7            -0.0156    -4.0173    -2.5846 C.3     
   8 C8            -0.5655    -2.3842     0.7311 C.ar    
   9 C9            -0.6379    -3.3714     1.7228 C.ar    
  10 C10           -0.4375    -3.0392     3.0291 C.ar    
  11 C11           -0.1595    -1.7202     3.3928 C.ar    
  12 N12            0.0429    -1.3990     4.7369 N.pl3   
  13 C13            0.5717    -2.3521     5.6109 C.2     
  14 N14            1.0137    -3.5381     5.2853 N.2     
  15 N15            1.4673    -4.2099     6.4245 N.pl3   
  16 H16            1.8408    -5.1050     6.4362 H       
  17 C17            1.3024    -3.4072     7.5202 C.ar    
  18 N18            1.5636    -3.5602     8.8129 N.ar    
  19 C19            1.3020    -2.6093     9.6835 C.ar    
  20 C20            0.7407    -1.4020     9.2937 C.ar    
  21 C21            0.4487    -1.1855     7.9716 C.ar    
  22 C22            0.7374    -2.2023     7.0569 C.ar    
  23 C23           -0.0829    -0.7294     2.4303 C.ar    
  24 C24           -0.2803    -1.0529     1.0920 C.ar    
  25 H25            1.0381     1.2891    -0.3231 H       
  26 H26           -0.5775     1.5137    -1.0356 H       
  27 H27           -0.3610     1.6136     0.7283 H       
  28 H28           -1.5545    -4.4236    -0.9921 H       
  29 H29           -2.0964    -4.0582    -3.4434 H       
  30 H30           -1.3474    -2.3750    -3.3581 H       
  31 H31            0.8753    -3.3981    -2.6892 H       
  32 H32            0.1262    -5.0813    -2.7745 H       
  33 H33           -0.8526    -4.3946     1.4522 H       
  34 H34           -0.4946    -3.8033     3.7903 H       
  35 H35           -0.1836    -0.5142     5.0635 H       
  36 H36            1.5293    -2.7726    10.7266 H       
  37 H37            0.5346    -0.6370    10.0277 H       
  38 H38            0.0115    -0.2534     7.6454 H       
  39 H39            0.1327     0.2894     2.7163 H       
@<TRIPOS>BOND
   1    1    2 1
   2    1   25 1
   3    1   26 1
   4    1   27 1
   5    2   24 1
   6    2    3 1
   7    3    4 2
   8    4    5 1
   9    4    8 1
  10    5    7 1
  11    5    6 1
  12    5   28 1
  13    6    7 1
  14    6   29 1
  15    6   30 1
  16    7   31 1
  17    7   32 1
  18    8   24 ar
  19    8    9 ar
  20    9   10 ar
  21    9   33 1
  22   10   11 ar
  23   10   34 1
  24   11   12 1
  25   11   23 ar
  26   12   13 1
  27   12   35 1
  28   13   22 1
  29   13   14 2
  30   14   15 1
  31   15   16 1
  32   15   17 1
  33   17   22 ar
  34   17   18 ar
  35   18   19 ar
  36   19   20 ar
  37   19   36 1
  38   20   21 ar
  39   20   37 1
  40   21   22 ar
  41   21   38 1
  42   23   24 ar
  43   23   39 1

#	End of record

