#	Name: ASD07930763
#	Creating user name:	WinNT
#	Creation time:	15. 06. 2019 21:13

#	Modifying user name:	WinNT
#	Modification time:	15. 06. 2019 21:13

#	Program:	/corina/corina34_cracker 3.40 0067  02.08.2006

@<TRIPOS>MOLECULE
ASD07930763
  47   50    0    0    0
SMALL
NO_CHARGES


@<TRIPOS>ATOM
   1 C1            -0.0178     1.4608     0.0101 C.3     
   2 N2             0.8031    -0.4153    -2.1619 N.2     
   3 N3            -0.8796    -1.7833    -1.2911 N.pl3   
   4 C4            -0.9005    -2.8248    -0.2586 C.3     
   5 C5            -1.2102    -2.1834     1.1010 C.3     
   6 S6             0.0275    -0.8859     1.4156 S.o2    
   7 N7             0.0021    -0.0041     0.0020 N.am    
   8 C8             0.0002    -0.7257    -1.1832 C.2     
   9 C9             0.4646    -3.5132    -0.1997 C.3     
  10 O10           -0.4323     0.0192     2.4099 O.2     
  11 O11            1.3354    -1.4387     1.4687 O.2     
  12 C12           -1.9634    -3.8404    -0.5898 C.2     
  13 C13           -1.9977    -4.5832    -1.7013 C.2     
  14 S14           -3.3408    -4.2321     0.4309 S.3     
  15 C15           -3.9130    -5.4133    -0.7400 C.2     
  16 C16           -3.0668    -5.4497    -1.7924 C.2     
  17 Cl17          -0.7859    -4.4650    -2.9388 Cl      
  18 C18           -5.1239    -6.2379    -0.5937 C.2     
  19 N19           -5.5714    -7.1621    -1.5102 N.pl3   
  20 C20           -6.7326    -7.7497    -1.0505 C.ar    
  21 C21           -7.0295    -7.1774     0.1994 C.ar    
  22 C22           -5.9698    -6.2083     0.4702 C.2     
  23 C23           -7.5807    -8.7263    -1.5728 C.ar    
  24 C24           -8.6977    -9.1177    -0.8583 C.ar    
  25 C25           -8.9840    -8.5477     0.3746 C.ar    
  26 C26           -8.1663    -7.5903     0.9039 C.ar    
  27 O27           -7.3102    -9.2906    -2.7799 O.3     
  28 C28           -8.2233   -10.2838    -3.2509 C.3     
  29 H29            1.0048     1.8381     0.0023 H       
  30 H30           -0.5450     1.8219    -0.8730 H       
  31 H31           -0.5280     1.8123     0.9069 H       
  32 H32            0.7883    -0.9307    -2.9835 H       
  33 H33           -1.4804    -1.8399    -2.0505 H       
  34 H34           -2.2071    -1.7432     1.0811 H       
  35 H35           -1.1573    -2.9394     1.8845 H       
  36 H36            1.2322    -2.7780     0.0418 H       
  37 H37            0.4485    -4.2871     0.5677 H       
  38 H38            0.6857    -3.9650    -1.1667 H       
  39 H39           -3.2163    -6.1042    -2.6383 H       
  40 H40           -5.1364    -7.3693    -2.3521 H       
  41 H41           -5.8793    -5.5829     1.3460 H       
  42 H42           -9.3539    -9.8739    -1.2633 H       
  43 H43           -9.8607    -8.8642     0.9201 H       
  44 H44           -8.3966    -7.1524     1.8639 H       
  45 H45           -7.8914   -10.6511    -4.2221 H       
  46 H46           -8.2577   -11.1110    -2.5420 H       
  47 H47           -9.2171    -9.8468    -3.3480 H       
@<TRIPOS>BOND
   1    1    7 1
   2    1   29 1
   3    1   30 1
   4    1   31 1
   5    2    8 2
   6    2   32 1
   7    3    4 1
   8    3    8 1
   9    3   33 1
  10    4    5 1
  11    4    9 1
  12    4   12 1
  13    5    6 1
  14    5   34 1
  15    5   35 1
  16    6    7 am
  17    6   10 2
  18    6   11 2
  19    7    8 1
  20    9   36 1
  21    9   37 1
  22    9   38 1
  23   12   14 1
  24   12   13 2
  25   13   17 1
  26   13   16 1
  27   14   15 1
  28   15   16 2
  29   15   18 1
  30   16   39 1
  31   18   19 1
  32   18   22 2
  33   19   20 1
  34   19   40 1
  35   20   21 ar
  36   20   23 ar
  37   21   22 1
  38   21   26 ar
  39   22   41 1
  40   23   24 ar
  41   23   27 1
  42   24   25 ar
  43   24   42 1
  44   25   26 ar
  45   25   43 1
  46   26   44 1
  47   27   28 1
  48   28   45 1
  49   28   46 1
  50   28   47 1

#	End of record

