#	Name: ASD02500592
#	Creating user name:	WinNT
#	Creation time:	15. 06. 2019 20:23

#	Modifying user name:	WinNT
#	Modification time:	15. 06. 2019 20:23

#	Program:	/corina/corina34_cracker 3.40 0067  02.08.2006

@<TRIPOS>MOLECULE
ASD02500592
  64   68    0    0    0
SMALL
NO_CHARGES


@<TRIPOS>ATOM
   1 N1             1.7627     4.1955    -0.8544 N.ar    
   2 C2             2.6976     3.9798     0.0387 C.ar    
   3 C3             3.8861     3.3291    -0.2863 C.ar    
   4 C4             4.0993     2.8973    -1.5643 C.ar    
   5 C5             3.0928     3.1302    -2.5207 C.ar    
   6 C6             3.2410     2.7157    -3.8538 C.ar    
   7 C7             2.2445     2.9601    -4.7492 C.ar    
   8 C8             1.0791     3.6169    -4.3601 C.ar    
   9 C9             0.9024     4.0323    -3.0761 C.ar    
  10 C10            1.9083     3.7984    -2.1226 C.ar    
  11 S11           -0.5813     4.8613    -2.6111 S.o2    
  12 O12           -0.1841     6.0372    -1.9194 O.2     
  13 O13           -1.4088     4.8811    -3.7662 O.2     
  14 N14           -1.3509     3.9032    -1.5011 N.am    
  15 C15           -1.8787     2.6750    -1.8888 C.ar    
  16 C16           -3.0392     2.1942    -1.2839 C.ar    
  17 C17           -3.5632     0.9789    -1.6662 C.ar    
  18 C18           -2.9295     0.2285    -2.6616 C.ar    
  19 C19           -1.7665     0.7141    -3.2652 C.ar    
  20 C20           -1.2505     1.9322    -2.8830 C.ar    
  21 C21           -3.4873    -1.0737    -3.0733 C.2     
  22 O22           -3.4969    -1.3869    -4.2482 O.2     
  23 N23           -3.9864    -1.9161    -2.1472 N.am    
  24 C24           -4.4636    -3.2554    -2.5240 C.3     
  25 C25           -3.8011    -4.2852    -1.6027 C.3     
  26 N26           -4.0417    -3.9113    -0.2026 N.3     
  27 C27           -3.4215    -2.6188     0.1179 C.3     
  28 C28           -4.0627    -1.5229    -0.7320 C.3     
  29 C29           -3.5721    -4.9615     0.7109 C.3     
  30 C30           -3.6073    -4.4398     2.1488 C.3     
  31 C31           -3.1255    -5.5172     3.0860 C.ar    
  32 C32           -1.7822    -5.6116     3.3982 C.ar    
  33 C33           -1.3403    -6.5999     4.2578 C.ar    
  34 C34           -2.2417    -7.4934     4.8055 C.ar    
  35 C35           -3.5851    -7.3984     4.4939 C.ar    
  36 C36           -4.0276    -6.4074     3.6377 C.ar    
  37 F37           -3.6499     2.9204    -0.3222 F       
  38 H38            2.5428     4.3158     1.0534 H       
  39 H39            4.6381     3.1666     0.4716 H       
  40 H40            5.0147     2.3915    -1.8338 H       
  41 H41            4.1402     2.2064    -4.1675 H       
  42 H42            2.3593     2.6409    -5.7745 H       
  43 H43            0.3036     3.7995    -5.0891 H       
  44 H44           -1.4338     4.1979    -0.5807 H       
  45 H45           -4.4620     0.6061    -1.1975 H       
  46 H46           -1.2753     0.1365    -4.0341 H       
  47 H47           -0.3543     2.3095    -3.3531 H       
  48 H48           -5.5464    -3.3041    -2.4089 H       
  49 H49           -4.1929    -3.4626    -3.5593 H       
  50 H50           -4.2257    -5.2707    -1.7941 H       
  51 H51           -2.7283    -4.3075    -1.7940 H       
  52 H52           -3.5707    -2.3957     1.1743 H       
  53 H53           -2.3539    -2.6643    -0.0974 H       
  54 H54           -3.5271    -0.5853    -0.5831 H       
  55 H55           -5.1062    -1.4019    -0.4413 H       
  56 H56           -4.2197    -5.8340     0.6250 H       
  57 H57           -2.5510    -5.2398     0.4503 H       
  58 H58           -2.9596    -3.5673     2.2347 H       
  59 H59           -4.6284    -4.1615     2.4095 H       
  60 H60           -1.0779    -4.9136     2.9704 H       
  61 H61           -0.2907    -6.6742     4.5013 H       
  62 H62           -1.8963    -8.2660     5.4765 H       
  63 H63           -4.2893    -8.0967     4.9216 H       
  64 H64           -5.0777    -6.3309     3.3972 H       
@<TRIPOS>BOND
   1    1    2 ar
   2    1   10 ar
   3    2    3 ar
   4    2   38 1
   5    3    4 ar
   6    3   39 1
   7    4    5 ar
   8    4   40 1
   9    5    6 ar
  10    5   10 ar
  11    6    7 ar
  12    6   41 1
  13    7    8 ar
  14    7   42 1
  15    8    9 ar
  16    8   43 1
  17    9   10 ar
  18    9   11 1
  19   11   12 2
  20   11   13 2
  21   11   14 am
  22   14   15 1
  23   14   44 1
  24   15   16 ar
  25   15   20 ar
  26   16   17 ar
  27   16   37 1
  28   17   18 ar
  29   17   45 1
  30   18   19 ar
  31   18   21 1
  32   19   20 ar
  33   19   46 1
  34   20   47 1
  35   21   22 2
  36   21   23 am
  37   23   24 1
  38   23   28 1
  39   24   25 1
  40   24   48 1
  41   24   49 1
  42   25   26 1
  43   25   50 1
  44   25   51 1
  45   26   27 1
  46   26   29 1
  47   27   28 1
  48   27   52 1
  49   27   53 1
  50   28   54 1
  51   28   55 1
  52   29   30 1
  53   29   56 1
  54   29   57 1
  55   30   31 1
  56   30   58 1
  57   30   59 1
  58   31   32 ar
  59   31   36 ar
  60   32   33 ar
  61   32   60 1
  62   33   34 ar
  63   33   61 1
  64   34   35 ar
  65   34   62 1
  66   35   36 ar
  67   35   63 1
  68   36   64 1

#	End of record

