#	Name: ASD01190171
#	Creating user name:	WinNT
#	Creation time:	15. 06. 2019 19:07

#	Modifying user name:	WinNT
#	Modification time:	15. 06. 2019 19:07

#	Program:	/corina/corina34_cracker 3.40 0067  02.08.2006

@<TRIPOS>MOLECULE
ASD01190171
  47   51    0    0    0
SMALL
NO_CHARGES


@<TRIPOS>ATOM
   1 C1            -0.0187     1.5258     0.0104 C.3     
   2 C2             0.0089     0.0361     0.3583 C.3     
   3 N3             5.2765     3.3979    -0.2469 N.pl3   
   4 N4             5.6900     2.7180    -1.3972 N.2     
   5 C5             4.7126     1.9949    -1.8656 C.2     
   6 C6             3.5586     2.1840    -0.9922 C.ar    
   7 C7             2.2525     1.6819    -0.9838 C.ar    
   8 C8             1.3884     2.0654     0.0006 C.ar    
   9 C9             1.7935     2.9490     0.9935 C.ar    
  10 C10            3.0635     3.4526     1.0063 C.ar    
  11 C11            3.9671     3.0795     0.0152 C.ar    
  12 C12            7.5927     5.9081     1.9786 C.ar    
  13 N13            8.1497     4.8548     1.4152 N.ar    
  14 C14            7.4328     4.0162     0.6857 C.ar    
  15 C15            6.0722     4.2601     0.5179 C.ar    
  16 C16            5.5234     5.3840     1.1301 C.ar    
  17 N17            6.3087     6.1735     1.8437 N.ar    
  18 N18           -1.5999     1.2934    -3.3066 N.pl3   
  19 C19           -1.1151     0.7455    -2.1503 C.2     
  20 C20           -0.6378     1.7124    -1.3508 C.2     
  21 C21           -0.8330     2.9834    -2.0524 C.ar    
  22 C22           -0.5482     4.3154    -1.7451 C.ar    
  23 C23           -0.8636     5.2999    -2.6384 C.ar    
  24 C24           -1.4651     4.9868    -3.8498 C.ar    
  25 C25           -1.7552     3.6796    -4.1730 C.ar    
  26 C26           -1.4424     2.6609    -3.2785 C.ar    
  27 C27           -2.1926     0.5370    -4.4124 C.3     
  28 F28            0.5836    -0.1372     1.6219 F       
  29 F29           -1.2974    -0.4649     0.3674 F       
  30 F30            0.7654    -0.6518    -0.5965 F       
  31 O31           -0.7915     2.2284     0.9856 O.3     
  32 H32            4.7496     1.3676    -2.7439 H       
  33 H33            1.9298     0.9953    -1.7524 H       
  34 H34            1.0958     3.2416     1.7642 H       
  35 H35            3.3657     4.1390     1.7835 H       
  36 H36            8.2054     6.5707     2.5719 H       
  37 H37            7.8959     3.1553     0.2266 H       
  38 H38            4.4723     5.6078     1.0235 H       
  39 H39           -1.1165    -0.3087    -1.9155 H       
  40 H40           -0.0807     4.5665    -0.8045 H       
  41 H41           -0.6434     6.3300    -2.4001 H       
  42 H42           -1.7084     5.7761    -4.5456 H       
  43 H43           -2.2236     3.4462    -5.1177 H       
  44 H44           -3.2669     0.4432    -4.2538 H       
  45 H45           -2.0082     1.0603    -5.3506 H       
  46 H46           -1.7437    -0.4553    -4.4556 H       
  47 H47           -0.8522     3.1805     0.8279 H       
@<TRIPOS>BOND
   1    1    2 1
   2    1    8 1
   3    1   20 1
   4    1   31 1
   5    2   28 1
   6    2   29 1
   7    2   30 1
   8    3    4 1
   9    3   11 1
  10    3   15 1
  11    4    5 2
  12    5    6 1
  13    5   32 1
  14    6    7 ar
  15    6   11 ar
  16    7    8 ar
  17    7   33 1
  18    8    9 ar
  19    9   10 ar
  20    9   34 1
  21   10   11 ar
  22   10   35 1
  23   12   13 ar
  24   12   17 ar
  25   12   36 1
  26   13   14 ar
  27   14   15 ar
  28   14   37 1
  29   15   16 ar
  30   16   17 ar
  31   16   38 1
  32   18   19 1
  33   18   26 1
  34   18   27 1
  35   19   20 2
  36   19   39 1
  37   20   21 1
  38   21   22 ar
  39   21   26 ar
  40   22   23 ar
  41   22   40 1
  42   23   24 ar
  43   23   41 1
  44   24   25 ar
  45   24   42 1
  46   25   26 ar
  47   25   43 1
  48   27   44 1
  49   27   45 1
  50   27   46 1
  51   31   47 1

#	End of record

