#	Name: ASD01910222
#	Creating user name:	WinNT
#	Creation time:	15. 06. 2019 19:55

#	Modifying user name:	WinNT
#	Modification time:	15. 06. 2019 19:55

#	Program:	/corina/corina34_cracker 3.40 0067  02.08.2006

@<TRIPOS>MOLECULE
ASD01910222
  41   44    0    0    0
SMALL
NO_CHARGES


@<TRIPOS>ATOM
   1 C1             1.9079     0.3045    -0.3664 C.2     
   2 C2             2.6378     1.6116    -0.1937 C.3     
   3 C3             2.5499     2.4208    -1.4898 C.3     
   4 C4             3.3187     3.7340    -1.3264 C.3     
   5 C5             2.6845     4.5555    -0.1996 C.3     
   6 N6             2.6332     3.7311     1.0155 N.am    
   7 C7             1.9959     2.4091     0.9459 C.3     
   8 C8             3.1608     4.1790     2.1720 C.2     
   9 C9             2.9800     3.4098     3.4066 C.2     
  10 O10            3.7873     5.2223     2.1913 O.2     
  11 N11            2.4233    -0.8946    -0.2569 N.2     
  12 C12            1.4035    -1.7510    -0.4916 C.2     
  13 N13            0.3392    -1.0285    -0.7274 N.2     
  14 O14            0.6117     0.1511    -0.6542 O.3     
  15 C15            1.4782    -3.2329    -0.4837 C.ar    
  16 C16            0.3386    -3.9914    -0.7448 C.ar    
  17 C17            0.4126    -5.3690    -0.7370 C.ar    
  18 C18            1.6178    -5.9985    -0.4701 C.ar    
  19 C19            2.7534    -5.2482    -0.2101 C.ar    
  20 C20            2.6894    -3.8701    -0.2211 C.ar    
  21 F21            1.6859    -7.3478    -0.4630 F       
  22 C22            3.8631     3.3636     4.4483 C.2     
  23 C23            3.4422     2.5621     5.4828 C.2     
  24 C24            2.2560     1.9714     5.2969 C.2     
  25 S25            1.5887     2.4044     3.7875 S.3     
  26 H26            3.6837     1.4158     0.0427 H       
  27 H27            2.9840     1.8452    -2.3073 H       
  28 H28            1.5051     2.6369    -1.7128 H       
  29 H29            4.3581     3.5187    -1.0790 H       
  30 H30            3.2753     4.2992    -2.2574 H       
  31 H31            3.2861     5.4449    -0.0126 H       
  32 H32            1.6742     4.8486    -0.4851 H       
  33 H33            0.9295     2.5272     0.7538 H       
  34 H34            2.1433     1.8823     1.8887 H       
  35 H35           -0.6012    -3.5015    -0.9525 H       
  36 H36           -0.4701    -5.9575    -0.9388 H       
  37 H37            3.6907    -5.7428    -0.0025 H       
  38 H38            3.5749    -3.2860    -0.0183 H       
  39 H39            4.7988     3.9029     4.4578 H       
  40 H40            4.0264     2.4193     6.3799 H       
  41 H41            1.7822     1.3120     6.0090 H       
@<TRIPOS>BOND
   1    1   11 2
   2    1    2 1
   3    1   14 1
   4    2    3 1
   5    2    7 1
   6    2   26 1
   7    3    4 1
   8    3   27 1
   9    3   28 1
  10    4    5 1
  11    4   29 1
  12    4   30 1
  13    5    6 1
  14    5   31 1
  15    5   32 1
  16    6    7 1
  17    6    8 am
  18    7   33 1
  19    7   34 1
  20    8    9 1
  21    8   10 2
  22    9   22 2
  23    9   25 1
  24   11   12 1
  25   12   13 2
  26   12   15 1
  27   13   14 1
  28   15   16 ar
  29   15   20 ar
  30   16   17 ar
  31   16   35 1
  32   17   18 ar
  33   17   36 1
  34   18   19 ar
  35   18   21 1
  36   19   20 ar
  37   19   37 1
  38   20   38 1
  39   22   23 1
  40   22   39 1
  41   23   24 2
  42   23   40 1
  43   24   25 1
  44   24   41 1

#	End of record

