#	Name: ASD03430933
#	Creating user name:	WinNT
#	Creation time:	15. 06. 2019 20:41

#	Modifying user name:	WinNT
#	Modification time:	15. 06. 2019 20:41

#	Program:	/corina/corina34_cracker 3.40 0067  02.08.2006

@<TRIPOS>MOLECULE
ASD03430933
  50   55    0    0    0
SMALL
NO_CHARGES


@<TRIPOS>ATOM
   1 O1            -0.0175     1.4365     0.0099 O.3     
   2 C2             0.0021    -0.0041     0.0020 C.3     
   3 C3             1.3374    -0.3105    -0.6926 C.3     
   4 C4             2.1567     0.9207    -0.4168 C.ar    
   5 C5             1.2638     1.9039     0.0002 C.ar    
   6 C6             1.7499     3.1656     0.3330 C.ar    
   7 C7             3.1049     3.4300     0.2558 C.ar    
   8 C8             3.9859     2.4410    -0.1577 C.ar    
   9 C9             3.5086     1.1875    -0.4986 C.ar    
  10 N10            2.1183    -2.3987    -1.1962 N.am    
  11 C11            1.9755    -1.5572    -0.1526 C.2     
  12 C12            1.1497    -0.5628    -2.1595 C.ar    
  13 C13            0.6277     0.1815    -3.1933 C.ar    
  14 C14            0.5838    -0.3444    -4.4726 C.ar    
  15 C15            1.0660    -1.6183    -4.7097 C.ar    
  16 C16            1.5926    -2.3671    -3.6774 C.ar    
  17 C17            1.6416    -1.8459    -2.3872 C.ar    
  18 O18            2.2988    -1.7667     0.9975 O.2     
  19 C19            2.7052    -3.7370    -1.0932 C.3     
  20 O20            5.3228     2.7125    -0.2184 O.3     
  21 O21            3.5832     4.6629     0.5913 O.3     
  22 C22            1.6202    -4.7398    -0.7961 C.ar    
  23 C23            5.9737     2.9219     1.0364 C.3     
  24 C24            5.8173     4.3641     1.4930 C.3     
  25 C25            4.3687     4.7252     1.7834 C.3     
  26 N26            1.2446    -4.9432     0.4517 N.ar    
  27 C27            1.0265    -5.4315    -1.8346 C.ar    
  28 C28            0.0291    -6.3520    -1.5504 C.ar    
  29 C29           -0.3350    -6.5428    -0.2265 C.ar    
  30 C30            0.2999    -5.8102     0.7589 C.ar    
  31 H31           -0.0053    -0.3974     1.0185 H       
  32 H32           -0.8343    -0.3999    -0.5740 H       
  33 H33            1.0672     3.9394     0.6516 H       
  34 H34            4.1926     0.4193    -0.8280 H       
  35 H35            0.2519     1.1765    -3.0057 H       
  36 H36            0.1736     0.2388    -5.2838 H       
  37 H37            1.0300    -2.0293    -5.7078 H       
  38 H38            1.9678    -3.3612    -3.8708 H       
  39 H39            3.1900    -3.9946    -2.0348 H       
  40 H40            3.4417    -3.7499    -0.2898 H       
  41 H41            5.5348     2.2599     1.7829 H       
  42 H42            7.0341     2.6915     0.9332 H       
  43 H43            6.4068     4.5141     2.3974 H       
  44 H44            6.1963     5.0245     0.7130 H       
  45 H45            4.3252     5.7357     2.1896 H       
  46 H46            3.9647     4.0268     2.5163 H       
  47 H47            1.3352    -5.2571    -2.8547 H       
  48 H48           -0.4529    -6.9069    -2.3418 H       
  49 H49           -1.1082    -7.2514     0.0314 H       
  50 H50            0.0223    -5.9532     1.7928 H       
@<TRIPOS>BOND
   1    1    2 1
   2    1    5 1
   3    2    3 1
   4    2   31 1
   5    2   32 1
   6    3    4 1
   7    3   11 1
   8    3   12 1
   9    4    5 ar
  10    4    9 ar
  11    5    6 ar
  12    6    7 ar
  13    6   33 1
  14    7    8 ar
  15    7   21 1
  16    8    9 ar
  17    8   20 1
  18    9   34 1
  19   10   11 am
  20   10   17 1
  21   10   19 1
  22   11   18 2
  23   12   13 ar
  24   12   17 ar
  25   13   14 ar
  26   13   35 1
  27   14   15 ar
  28   14   36 1
  29   15   16 ar
  30   15   37 1
  31   16   17 ar
  32   16   38 1
  33   19   22 1
  34   19   39 1
  35   19   40 1
  36   20   23 1
  37   21   25 1
  38   22   26 ar
  39   22   27 ar
  40   23   24 1
  41   23   41 1
  42   23   42 1
  43   24   25 1
  44   24   43 1
  45   24   44 1
  46   25   45 1
  47   25   46 1
  48   26   30 ar
  49   27   28 ar
  50   27   47 1
  51   28   29 ar
  52   28   48 1
  53   29   30 ar
  54   29   49 1
  55   30   50 1

#	End of record

