#	Name: ASD06770033
#	Creating user name:	WinNT
#	Creation time:	15. 06. 2019 21:08

#	Modifying user name:	WinNT
#	Modification time:	15. 06. 2019 21:08

#	Program:	/corina/corina34_cracker 3.40 0067  02.08.2006

@<TRIPOS>MOLECULE
ASD06770033
  53   57    0    0    0
SMALL
NO_CHARGES


@<TRIPOS>ATOM
   1 N1            -0.0154     1.2860     0.0091 N.2     
   2 N2             0.0021    -0.0041     0.0020 N.2     
   3 C3             1.2407    -0.4345    -0.0105 C.2     
   4 N4             2.0276     0.6565    -0.0090 N.pl3   
   5 C5             3.4177     0.8214    -0.0112 C.ar    
   6 C6             3.9519     1.7655     0.8656 C.ar    
   7 C7             3.0373     2.4384     1.8453 C.3     
   8 O8             2.2488     3.4953     1.2750 O.3     
   9 C9             1.6971     3.1565    -0.0055 C.3     
  10 C10            1.2006     1.7401    -0.0001 C.2     
  11 C11            5.3036     2.0325     0.8401 C.ar    
  12 C12            6.1309     1.3250    -0.0161 C.ar    
  13 C13            5.6068     0.3515    -0.8480 C.ar    
  14 C14            4.2465     0.0994    -0.8478 C.ar    
  15 C15            1.6942    -1.8716    -0.0240 C.3     
  16 C16            1.1690    -2.5838     1.2241 C.3     
  17 C17            1.6295    -4.0428     1.2104 C.3     
  18 C18            1.0860    -4.7374    -0.0399 C.3     
  19 C19            1.6112    -4.0252    -1.2880 C.3     
  20 C20            1.1508    -2.5661    -1.2743 C.3     
  21 O21            1.5161    -6.1001    -0.0527 O.3     
  22 Cl22           7.8337     1.6616    -0.0460 Cl      
  23 C23            0.6081    -6.9901    -0.7051 C.3     
  24 C24            1.3799    -8.1648    -1.3312 C.3     
  25 C25           -0.3648    -7.6008     0.3246 C.3     
  26 C26           -0.5638    -9.0587    -0.1592 C.3     
  27 C27            0.8490    -9.4484    -0.6602 C.3     
  28 H28            2.3645     1.6896     2.2635 H       
  29 H29            3.6388     2.8516     2.6550 H       
  30 H30            0.8690     3.8284    -0.2309 H       
  31 H31            2.4661     3.2664    -0.7702 H       
  32 H32            5.7170     2.7925     1.4866 H       
  33 H33            6.2600    -0.2119    -1.4979 H       
  34 H34            3.8348    -0.6583    -1.4980 H       
  35 H35            2.7835    -1.9087    -0.0322 H       
  36 H36            1.5562    -2.0890     2.1148 H       
  37 H37            0.0797    -2.5467     1.2323 H       
  38 H38            2.7188    -4.0800     1.2022 H       
  39 H39            1.2553    -4.5503     2.0996 H       
  40 H40           -0.0033    -4.7003    -0.0317 H       
  41 H41            2.7006    -4.0623    -1.2962 H       
  42 H42            1.2241    -4.5200    -2.1787 H       
  43 H43            0.0615    -2.5290    -1.2661 H       
  44 H44            1.5249    -2.0587    -2.1634 H       
  45 H45            0.0512    -6.4564    -1.4753 H       
  46 H46            1.1969    -8.2018    -2.4051 H       
  47 H47            2.4470    -8.0561    -1.1374 H       
  48 H48            0.0761    -7.5864     1.3213 H       
  49 H49           -1.3134    -7.0639     0.3182 H       
  50 H50           -0.8718    -9.7008     0.6660 H       
  51 H51           -1.2875    -9.1002    -0.9733 H       
  52 H52            0.7863   -10.2600    -1.3852 H       
  53 H53            1.4860    -9.7324     0.1775 H       
@<TRIPOS>BOND
   1    1    2 1
   2    1   10 2
   3    2    3 2
   4    3    4 1
   5    3   15 1
   6    4    5 1
   7    4   10 1
   8    5    6 ar
   9    5   14 ar
  10    6    7 1
  11    6   11 ar
  12    7    8 1
  13    7   28 1
  14    7   29 1
  15    8    9 1
  16    9   10 1
  17    9   30 1
  18    9   31 1
  19   11   12 ar
  20   11   32 1
  21   12   13 ar
  22   12   22 1
  23   13   14 ar
  24   13   33 1
  25   14   34 1
  26   15   16 1
  27   15   20 1
  28   15   35 1
  29   16   17 1
  30   16   36 1
  31   16   37 1
  32   17   18 1
  33   17   38 1
  34   17   39 1
  35   18   19 1
  36   18   21 1
  37   18   40 1
  38   19   20 1
  39   19   41 1
  40   19   42 1
  41   20   43 1
  42   20   44 1
  43   21   23 1
  44   23   24 1
  45   23   25 1
  46   23   45 1
  47   24   27 1
  48   24   46 1
  49   24   47 1
  50   25   26 1
  51   25   48 1
  52   25   49 1
  53   26   27 1
  54   26   50 1
  55   26   51 1
  56   27   52 1
  57   27   53 1

#	End of record

