#	Name: ASD01850098
#	Creating user name:	WinNT
#	Creation time:	15. 06. 2019 19:38

#	Modifying user name:	WinNT
#	Modification time:	15. 06. 2019 19:38

#	Program:	/corina/corina34_cracker 3.40 0067  02.08.2006

@<TRIPOS>MOLECULE
ASD01850098
  51   55    0    0    0
SMALL
NO_CHARGES


@<TRIPOS>ATOM
   1 C1             0.1480     1.0704    -0.1530 C.ar    
   2 C2             0.3400    -0.2947    -0.0366 C.ar    
   3 C3             1.6110    -0.8066     0.1268 C.ar    
   4 C4             2.7065     0.0547     0.1747 C.ar    
   5 C5             2.5004     1.4363     0.0742 C.ar    
   6 C6             1.2294     1.9335    -0.0975 C.ar    
   7 C7             4.1586    -0.1869     0.3137 C.2     
   8 N8             4.8249     0.9547     0.1456 N.am    
   9 C9             3.8528     2.0703     0.2182 C.3     
  10 C10            6.0896     1.6479    -0.1631 C.3     
  11 C11            5.6436     2.7487    -1.1571 C.3     
  12 N12            4.2000     2.9498    -0.9034 N.am    
  13 C13            3.3694     3.7755    -1.5703 C.2     
  14 C14            3.9066     4.6932    -2.5957 C.ar    
  15 C15            3.0729     5.6403    -3.1939 C.ar    
  16 C16            3.5806     6.4956    -4.1513 C.ar    
  17 C17            4.9171     6.4143    -4.5186 C.ar    
  18 C18            5.7471     5.4750    -3.9271 C.ar    
  19 C19            5.2511     4.6203    -2.9659 C.ar    
  20 O20            2.1781     3.7651    -1.3279 O.2     
  21 C21            3.9669     2.8042     1.5558 C.3     
  22 C22            2.9516     3.9480     1.5982 C.3     
  23 C23            3.0658     4.6820     2.9358 C.3     
  24 C24            2.7822     3.7056     4.0791 C.3     
  25 C25            3.7975     2.5618     4.0367 C.3     
  26 C26            3.6834     1.8279     2.6991 C.3     
  27 O27            4.6683    -1.2656     0.5465 O.2     
  28 F28            5.4100     7.2531    -5.4559 F       
  29 F29            2.7760     7.4125    -4.7319 F       
  30 H30           -0.8481     1.4639    -0.2921 H       
  31 H31           -0.5082    -0.9623    -0.0734 H       
  32 H32            1.7569    -1.8728     0.2178 H       
  33 H33            1.0748     2.9984    -0.1899 H       
  34 H34            6.5170     2.0903     0.7367 H       
  35 H35            6.7984     0.9667    -0.6340 H       
  36 H36            6.1918     3.6717    -0.9682 H       
  37 H37            5.8036     2.4175    -2.1831 H       
  38 H38            2.0332     5.7034    -2.9085 H       
  39 H39            6.7859     5.4156    -4.2166 H       
  40 H40            5.8995     3.8890    -2.5062 H       
  41 H41            4.9736     3.2079     1.6640 H       
  42 H42            3.1536     4.6436     0.7837 H       
  43 H43            1.9449     3.5443     1.4900 H       
  44 H44            4.0725     5.0856     3.0440 H       
  45 H45            2.3424     5.4968     2.9660 H       
  46 H46            2.8635     4.2285     5.0321 H       
  47 H47            1.7755     3.3019     3.9710 H       
  48 H48            4.8042     2.9655     4.1449 H       
  49 H49            3.5955     1.8663     4.8512 H       
  50 H50            2.6767     1.4242     2.5909 H       
  51 H51            4.4067     1.0130     2.6689 H       
@<TRIPOS>BOND
   1    1    2 ar
   2    1    6 ar
   3    1   30 1
   4    2    3 ar
   5    2   31 1
   6    3    4 ar
   7    3   32 1
   8    4    5 ar
   9    4    7 1
  10    5    6 ar
  11    5    9 1
  12    6   33 1
  13    7    8 am
  14    7   27 2
  15    8    9 1
  16    8   10 1
  17    9   21 1
  18    9   12 1
  19   10   11 1
  20   10   34 1
  21   10   35 1
  22   11   12 1
  23   11   36 1
  24   11   37 1
  25   12   13 am
  26   13   14 1
  27   13   20 2
  28   14   15 ar
  29   14   19 ar
  30   15   16 ar
  31   15   38 1
  32   16   17 ar
  33   16   29 1
  34   17   18 ar
  35   17   28 1
  36   18   19 ar
  37   18   39 1
  38   19   40 1
  39   21   22 1
  40   21   26 1
  41   21   41 1
  42   22   23 1
  43   22   42 1
  44   22   43 1
  45   23   24 1
  46   23   44 1
  47   23   45 1
  48   24   25 1
  49   24   46 1
  50   24   47 1
  51   25   26 1
  52   25   48 1
  53   25   49 1
  54   26   50 1
  55   26   51 1

#	End of record

