#	Name: ASD01028744
#	Creating user name:	WinNT
#	Creation time:	15. 06. 2019 18:58

#	Modifying user name:	WinNT
#	Modification time:	15. 06. 2019 18:58

#	Program:	/corina/corina34_cracker 3.40 0067  02.08.2006

@<TRIPOS>MOLECULE
ASD01028744
  54   58    0    0    0
SMALL
NO_CHARGES


@<TRIPOS>ATOM
   1 N1            -0.0157     1.3086     0.0092 N.ar    
   2 C2             0.0021    -0.0041     0.0020 C.ar    
   3 C3             1.1929    -0.7180    -0.0127 C.ar    
   4 C4             2.4010    -0.0409    -0.0206 C.ar    
   5 C5             2.3699     1.3759    -0.0131 C.ar    
   6 N6             3.4972     2.0878    -0.0196 N.ar    
   7 C7             3.4806     3.3981    -0.0124 C.ar    
   8 C8             2.2786     4.1130     0.0024 C.ar    
   9 C9             1.0780     3.4323     0.0097 C.ar    
  10 C10            1.1130     2.0256     0.0023 C.ar    
  11 N11            3.6056    -0.7290    -0.0349 N.pl3   
  12 O12            2.2928     5.4715     0.0099 O.3     
  13 C13            3.5727     6.1070     0.0021 C.3     
  14 C14            3.3880     7.6258     0.0124 C.3     
  15 O15            2.7763     8.0230     1.2412 O.3     
  16 C16            2.5579     9.4307     1.3534 C.3     
  17 C17            3.6123    -2.1940    -0.0419 C.3     
  18 C18            5.9446    -2.7923     1.0905 C.ar    
  19 C19            7.1455    -3.3051     0.5675 C.ar    
  20 C20            8.2173    -3.5227     1.4275 C.ar    
  21 C21            8.0572    -3.2246     2.7672 C.ar    
  22 C22            6.8374    -2.7179     3.2201 C.ar    
  23 N23            5.8303    -2.5186     2.3835 N.ar    
  24 O24            6.9664    -3.4826    -0.7561 O.3     
  25 C25            5.0353    -2.6897    -0.0573 C.2     
  26 C26            5.7266    -3.1177    -1.1236 C.2     
  27 C27            6.6670    -2.3988     4.6589 C.ar    
  28 C28            5.4549    -1.8927     5.1236 C.ar    
  29 C29            5.3007    -1.5967     6.4653 C.ar    
  30 C30            6.3489    -1.8022     7.3469 C.ar    
  31 C31            7.5556    -2.3051     6.8894 C.ar    
  32 C32            7.7168    -2.6097     5.5505 C.ar    
  33 F33            8.5748    -2.5035     7.7537 F       
  34 F34            4.1258    -1.1059     6.9170 F       
  35 H35           -0.9340    -0.5427     0.0081 H       
  36 H36            1.1771    -1.7979    -0.0177 H       
  37 H37            4.4160     3.9379    -0.0177 H       
  38 H38            0.1381     3.9642     0.0211 H       
  39 H39            4.4433    -0.2401    -0.0403 H       
  40 H40            4.1345     5.8033     0.8854 H       
  41 H41            4.1186     5.8134    -0.8944 H       
  42 H42            4.3596     8.1106    -0.0831 H       
  43 H43            2.7516     7.9201    -0.8221 H       
  44 H44            2.0907     9.6506     2.3133 H       
  45 H45            3.5123     9.9529     1.2857 H       
  46 H46            1.9042     9.7624     0.5467 H       
  47 H47            3.1083    -2.5639     0.8510 H       
  48 H48            3.0920    -2.5555    -0.9289 H       
  49 H49            9.1524    -3.9158     1.0568 H       
  50 H50            8.8706    -3.3829     3.4599 H       
  51 H51            5.3413    -3.1659    -2.1314 H       
  52 H52            4.6373    -1.7315     4.4368 H       
  53 H53            6.2252    -1.5692     8.3942 H       
  54 H54            8.6565    -3.0064     5.1954 H       
@<TRIPOS>BOND
   1    1    2 ar
   2    1   10 ar
   3    2    3 ar
   4    2   35 1
   5    3    4 ar
   6    3   36 1
   7    4    5 ar
   8    4   11 1
   9    5    6 ar
  10    5   10 ar
  11    6    7 ar
  12    7    8 ar
  13    7   37 1
  14    8    9 ar
  15    8   12 1
  16    9   10 ar
  17    9   38 1
  18   11   17 1
  19   11   39 1
  20   12   13 1
  21   13   14 1
  22   13   40 1
  23   13   41 1
  24   14   15 1
  25   14   42 1
  26   14   43 1
  27   15   16 1
  28   16   44 1
  29   16   45 1
  30   16   46 1
  31   17   25 1
  32   17   47 1
  33   17   48 1
  34   18   19 ar
  35   18   23 ar
  36   18   25 1
  37   19   20 ar
  38   19   24 1
  39   20   21 ar
  40   20   49 1
  41   21   22 ar
  42   21   50 1
  43   22   23 ar
  44   22   27 1
  45   24   26 1
  46   25   26 2
  47   26   51 1
  48   27   28 ar
  49   27   32 ar
  50   28   29 ar
  51   28   52 1
  52   29   30 ar
  53   29   34 1
  54   30   31 ar
  55   30   53 1
  56   31   32 ar
  57   31   33 1
  58   32   54 1

#	End of record

