#	Name: ASD01200167
#	Creating user name:	WinNT
#	Creation time:	15. 06. 2019 19:08

#	Modifying user name:	WinNT
#	Modification time:	15. 06. 2019 19:08

#	Program:	/corina/corina34_cracker 3.40 0067  02.08.2006

@<TRIPOS>MOLECULE
ASD01200167
  51   53    0    0    0
SMALL
NO_CHARGES


@<TRIPOS>ATOM
   1 C1             0.9788     1.3640    -1.7312 C.2     
   2 C2             0.8672    -0.1355    -1.6318 C.3     
   3 O3             1.5850     1.9845    -0.8838 O.2     
   4 N4             0.4095     2.0150    -2.7650 N.am    
   5 C5             0.4223     3.4085    -2.8032 C.ar    
   6 C6            -0.0638     4.0712    -3.9247 C.ar    
   7 C7            -0.0452     5.4545    -3.9495 C.ar    
   8 C8             0.4608     6.1300    -2.8472 C.ar    
   9 C9             0.9271     5.4074    -1.7671 C.ar    
  10 N10            0.8919     4.0885    -1.7695 N.ar    
  11 S11            1.7366    -0.7094    -0.1467 S.3     
  12 N12            2.5853    -3.2583    -0.4085 N.am    
  13 C13            1.3699    -2.4857    -0.1200 C.3     
  14 C14            0.9324    -2.9069     1.2637 C.2     
  15 C15            1.8086    -3.8107     1.6904 C.2     
  16 C16            2.8322    -4.0334     0.6642 C.2     
  17 O17            3.7665    -4.8051     0.7669 O.2     
  18 C18            1.7575    -4.5030     3.0280 C.3     
  19 C19           -0.2695    -2.3981     2.0172 C.3     
  20 C20            3.3786    -3.2008    -1.6388 C.3     
  21 C21            4.4433    -2.1432    -1.5010 C.ar    
  22 C22            5.6844    -2.4756    -0.9902 C.ar    
  23 C23            6.6620    -1.5079    -0.8628 C.ar    
  24 C24            6.3976    -0.2016    -1.2480 C.ar    
  25 C25            5.1516     0.1294    -1.7603 C.ar    
  26 C26            4.1792    -0.8432    -1.8908 C.ar    
  27 O27            7.3576     0.7522    -1.1234 O.3     
  28 C28            7.0151     2.0756    -1.5399 C.3     
  29 H29           -0.1836    -0.4184    -1.5697 H       
  30 H30            1.3150    -0.5925    -2.5143 H       
  31 H31           -0.0091     1.5140    -3.4823 H       
  32 H32           -0.4501     3.5139    -4.7652 H       
  33 H33           -0.4157     5.9964    -4.8071 H       
  34 H34            0.4898     7.2096    -2.8349 H       
  35 H35            1.3221     5.9285    -0.9075 H       
  36 H36            0.5937    -2.7200    -0.8485 H       
  37 H37            1.1724    -5.4185     2.9411 H       
  38 H38            2.7699    -4.7479     3.3493 H       
  39 H39            1.2933    -3.8433     3.7611 H       
  40 H40           -1.1092    -3.0754     1.8617 H       
  41 H41           -0.0364    -2.3466     3.0808 H       
  42 H42           -0.5320    -1.4045     1.6542 H       
  43 H43            3.8485    -4.1687    -1.8137 H       
  44 H44            2.7290    -2.9551    -2.4788 H       
  45 H45            5.8895    -3.4926    -0.6901 H       
  46 H46            7.6311    -1.7680    -0.4635 H       
  47 H47            4.9434     1.1456    -2.0608 H       
  48 H48            3.2106    -0.5870    -2.2940 H       
  49 H49            7.8682     2.7367    -1.3873 H       
  50 H50            6.7472     2.0661    -2.5964 H       
  51 H51            6.1688     2.4334    -0.9536 H       
@<TRIPOS>BOND
   1    1    2 1
   2    1    3 2
   3    1    4 am
   4    2   11 1
   5    2   29 1
   6    2   30 1
   7    4    5 1
   8    4   31 1
   9    5    6 ar
  10    5   10 ar
  11    6    7 ar
  12    6   32 1
  13    7    8 ar
  14    7   33 1
  15    8    9 ar
  16    8   34 1
  17    9   10 ar
  18    9   35 1
  19   11   13 1
  20   12   13 1
  21   12   16 am
  22   12   20 1
  23   13   14 1
  24   13   36 1
  25   14   15 2
  26   14   19 1
  27   15   16 1
  28   15   18 1
  29   16   17 2
  30   18   37 1
  31   18   38 1
  32   18   39 1
  33   19   40 1
  34   19   41 1
  35   19   42 1
  36   20   21 1
  37   20   43 1
  38   20   44 1
  39   21   22 ar
  40   21   26 ar
  41   22   23 ar
  42   22   45 1
  43   23   24 ar
  44   23   46 1
  45   24   25 ar
  46   24   27 1
  47   25   26 ar
  48   25   47 1
  49   26   48 1
  50   27   28 1
  51   28   49 1
  52   28   50 1
  53   28   51 1

#	End of record

