#	Name: ASD01810440
#	Creating user name:	WinNT
#	Creation time:	15. 06. 2019 19:24

#	Modifying user name:	WinNT
#	Modification time:	15. 06. 2019 19:24

#	Program:	/corina/corina34_cracker 3.40 0067  02.08.2006

@<TRIPOS>MOLECULE
ASD01810440
  50   53    0    0    0
SMALL
NO_CHARGES


@<TRIPOS>ATOM
   1 C1            -0.8898    -0.1876     0.3485 C.1     
   2 C2            -0.7715     1.2381     0.2833 C.ar    
   3 C3             0.4870     1.8332     0.1756 C.ar    
   4 C4             0.5937     3.2071     0.1133 C.ar    
   5 C5            -0.5427     3.9951     0.1578 C.ar    
   6 C6            -1.7929     3.4121     0.2649 C.ar    
   7 C7            -1.9146     2.0391     0.3213 C.ar    
   8 N8            -0.9836    -1.3185     0.4002 N.1     
   9 N9            -1.4503     8.1287     0.0545 N.am    
  10 C10           -1.0191     7.5364    -1.2191 C.3     
  11 C11           -1.1767     6.0150    -1.1338 C.3     
  12 C12           -0.4182     5.4954     0.0897 C.3     
  13 C13           -1.0089     6.1141     1.3588 C.3     
  14 C14           -0.8494     7.6367     1.3017 C.3     
  15 C15           -2.3754     9.1085     0.0778 C.2     
  16 C16           -2.8712     9.6875    -1.1892 C.ar    
  17 C17           -4.2274     9.9664    -1.3459 C.ar    
  18 C18           -4.6861    10.5124    -2.5430 C.ar    
  19 C19           -3.7848    10.7764    -3.5773 C.ar    
  20 C20           -2.4425    10.4975    -3.4152 C.ar    
  21 C21           -1.9805     9.9613    -2.2293 C.ar    
  22 O22           -2.8021     9.5164     1.1404 O.2     
  23 C23           -4.2790    11.3664    -4.8730 C.3     
  24 O24           -7.0995    10.6070    -1.8069 O.3     
  25 C25           -6.1228    10.8110    -2.7183 C.2     
  26 N26           -6.6843    11.3228    -3.7861 N.2     
  27 N27           -7.9492    11.4462    -3.5865 N.2     
  28 C28           -8.2452    11.0175    -2.3819 C.2     
  29 N29           -9.5017    10.9914    -1.8097 N.pl3   
  30 H30            1.3749     1.2193     0.1415 H       
  31 H31            1.5665     3.6688     0.0300 H       
  32 H32           -2.6759     4.0330     0.2994 H       
  33 H33           -2.8913     1.5850     0.4000 H       
  34 H34           -1.6370     7.9229    -2.0296 H       
  35 H35            0.0260     7.7858    -1.4028 H       
  36 H36           -2.2331     5.7633    -1.0408 H       
  37 H37           -0.7708     5.5561    -2.0353 H       
  38 H38            0.6337     5.7692     0.0082 H       
  39 H39           -2.0669     5.8615     1.4283 H       
  40 H40           -0.4836     5.7258     2.2314 H       
  41 H41            0.2095     7.8942     1.3236 H       
  42 H42           -1.3554     8.0893     2.1545 H       
  43 H43           -4.9199     9.7600    -0.5433 H       
  44 H44           -1.7499    10.7035    -4.2179 H       
  45 H45           -0.9284     9.7497    -2.1075 H       
  46 H46           -4.2471    12.4542    -4.8124 H       
  47 H47           -3.6431    11.0293    -5.6916 H       
  48 H48           -5.3042    11.0423    -5.0521 H       
  49 H49           -9.6171    10.6528    -0.9081 H       
  50 H50          -10.2689    11.3117    -2.3094 H       
@<TRIPOS>BOND
   1    1    2 1
   2    1    8 3
   3    2    3 ar
   4    2    7 ar
   5    3    4 ar
   6    3   30 1
   7    4    5 ar
   8    4   31 1
   9    5    6 ar
  10    5   12 1
  11    6    7 ar
  12    6   32 1
  13    7   33 1
  14    9   10 1
  15    9   14 1
  16    9   15 am
  17   10   11 1
  18   10   34 1
  19   10   35 1
  20   11   12 1
  21   11   36 1
  22   11   37 1
  23   12   13 1
  24   12   38 1
  25   13   14 1
  26   13   39 1
  27   13   40 1
  28   14   41 1
  29   14   42 1
  30   15   16 1
  31   15   22 2
  32   16   17 ar
  33   16   21 ar
  34   17   18 ar
  35   17   43 1
  36   18   19 ar
  37   18   25 1
  38   19   20 ar
  39   19   23 1
  40   20   21 ar
  41   20   44 1
  42   21   45 1
  43   23   46 1
  44   23   47 1
  45   23   48 1
  46   24   25 1
  47   24   28 1
  48   25   26 2
  49   26   27 1
  50   27   28 2
  51   28   29 1
  52   29   49 1
  53   29   50 1

#	End of record

