#	Name: ASD00069411
#	Creating user name:	WinNT
#	Creation time:	15. 06. 2019 18:29

#	Modifying user name:	WinNT
#	Modification time:	15. 06. 2019 18:29

#	Program:	/corina/corina34_cracker 3.40 0067  02.08.2006

@<TRIPOS>MOLECULE
ASD00069411
  78   80    0    0    0
SMALL
NO_CHARGES


@<TRIPOS>ATOM
   1 C1             0.1134     1.1700     1.4456 C.2     
   2 C2             0.0666    -0.0096     0.7776 C.2     
   3 C3             2.1491     0.5355     0.9356 C.2     
   4 N4             1.3123    -0.3728     0.4799 N.2     
   5 Br5           -1.5009    -0.9743     0.3438 Br      
   6 C6             3.6164     0.4988     0.8066 C.2     
   7 O7             4.2904     1.3994     1.2694 O.2     
   8 N8             4.2118    -0.5327     0.1757 N.am    
   9 C9             5.5955    -0.5169    -0.0404 C.ar    
  10 C10            6.3144    -1.7109    -0.0531 C.ar    
  11 C11            6.2534     0.6872    -0.2480 C.ar    
  12 C12            7.6187     0.7016    -0.4610 C.ar    
  13 C13            8.3345    -0.4818    -0.4683 C.ar    
  14 C14            7.6865    -1.6880    -0.2679 C.ar    
  15 N15            5.6554    -2.9301     0.1506 N.3     
  16 C16            6.0984    -3.5662     1.3998 C.3     
  17 C17            5.3121    -4.8624     1.6128 C.3     
  18 O18            5.4909    -5.7145     0.4782 O.3     
  19 C19            5.0692    -5.1267    -0.7554 C.3     
  20 C20            5.8531    -3.8332    -0.9925 C.3     
  21 F21            8.3888    -2.8420    -0.2752 F       
  22 C22            5.8242    -5.5700     2.8690 C.3     
  23 N23            1.4240     1.5187     1.5482 N.pl3   
  24 Si24           0.6029     7.0176     4.7366 Si      
  25 C25            0.0632     5.4509     3.8850 C.3     
  26 C26            1.2931     4.7016     3.3684 C.3     
  27 O27            0.8791     3.4999     2.7152 O.3     
  28 C28            1.5245     8.0953     3.5283 C.3     
  29 C29           -0.8947     7.9300     5.3656 C.3     
  30 C30            1.7184     6.5941     6.1673 C.3     
  31 C31            1.9575     2.7212     2.1930 C.3     
  32 N32            5.0713    -6.8102     3.0721 N.am    
  33 O33            4.6594    -8.7437     4.3114 O.3     
  34 C34            5.0150    -9.5491     5.4660 C.3     
  35 C35            4.8099    -8.7300     6.7419 C.3     
  36 C36            4.1278   -10.7948     5.5116 C.3     
  37 C37            6.4819    -9.9712     5.3612 C.3     
  38 C38            5.3514    -7.6039     4.1247 C.2     
  39 O39            6.2284    -7.2908     4.9053 O.2     
  40 H40           -0.7310     1.7291     1.8209 H       
  41 H41            3.6820    -1.2861    -0.1287 H       
  42 H42            5.6980     1.6134    -0.2434 H       
  43 H43            8.1283     1.6400    -0.6227 H       
  44 H44            9.4014    -0.4650    -0.6356 H       
  45 H45            7.1627    -3.7925     1.3354 H       
  46 H46            5.9193    -2.8902     2.2359 H       
  47 H47            4.2535    -4.6308     1.7307 H       
  48 H48            5.2584    -5.8220    -1.5733 H       
  49 H49            4.0036    -4.9028    -0.7064 H       
  50 H50            5.4948    -3.3521    -1.9026 H       
  51 H51            6.9134    -4.0638    -1.0951 H       
  52 H52            6.8822    -5.8028     2.7490 H       
  53 H53            5.6911    -4.9186     3.7327 H       
  54 H54           -0.4760     4.8204     4.5919 H       
  55 H55           -0.5894     5.6987     3.0479 H       
  56 H56            1.8323     5.3322     2.6615 H       
  57 H57            1.9457     4.4538     4.2055 H       
  58 H58            0.8719     8.3431     2.6912 H       
  59 H59            1.8403     9.0119     4.0266 H       
  60 H60            2.4007     7.5615     3.1603 H       
  61 H61           -1.4339     7.2994     6.0725 H       
  62 H62           -0.5789     8.8466     5.8638 H       
  63 H63           -1.5473     8.1777     4.5285 H       
  64 H64            2.5946     6.0603     5.7993 H       
  65 H65            2.0341     7.5107     6.6656 H       
  66 H66            1.1791     5.9636     6.8742 H       
  67 H67            2.6240     2.4323     3.0057 H       
  68 H68            2.5105     3.3106     1.4617 H       
  69 H69            4.3711    -7.0601     2.4490 H       
  70 H70            3.7649    -8.4293     6.8166 H       
  71 H71            5.0768    -9.3347     7.6087 H       
  72 H72            5.4419    -7.8425     6.7095 H       
  73 H73            4.2739   -11.3784     4.6026 H       
  74 H74            4.3948   -11.3995     6.3783 H       
  75 H75            3.0828   -10.4941     5.5863 H       
  76 H76            7.1139    -9.0837     5.3287 H       
  77 H77            6.7488   -10.5758     6.2280 H       
  78 H78            6.6280   -10.5547     4.4522 H       
@<TRIPOS>BOND
   1    1    2 2
   2    1   23 1
   3    1   40 1
   4    2    5 1
   5    2    4 1
   6    3    4 2
   7    3    6 1
   8    3   23 1
   9    6    7 2
  10    6    8 am
  11    8    9 1
  12    8   41 1
  13    9   10 ar
  14    9   11 ar
  15   10   15 1
  16   10   14 ar
  17   11   12 ar
  18   11   42 1
  19   12   13 ar
  20   12   43 1
  21   13   14 ar
  22   13   44 1
  23   14   21 1
  24   15   16 1
  25   15   20 1
  26   16   17 1
  27   16   45 1
  28   16   46 1
  29   17   18 1
  30   17   22 1
  31   17   47 1
  32   18   19 1
  33   19   20 1
  34   19   48 1
  35   19   49 1
  36   20   50 1
  37   20   51 1
  38   22   32 1
  39   22   52 1
  40   22   53 1
  41   23   31 1
  42   24   25 1
  43   24   28 1
  44   24   29 1
  45   24   30 1
  46   25   26 1
  47   25   54 1
  48   25   55 1
  49   26   27 1
  50   26   56 1
  51   26   57 1
  52   27   31 1
  53   28   58 1
  54   28   59 1
  55   28   60 1
  56   29   61 1
  57   29   62 1
  58   29   63 1
  59   30   64 1
  60   30   65 1
  61   30   66 1
  62   31   67 1
  63   31   68 1
  64   32   38 am
  65   32   69 1
  66   33   34 1
  67   33   38 1
  68   34   35 1
  69   34   36 1
  70   34   37 1
  71   35   70 1
  72   35   71 1
  73   35   72 1
  74   36   73 1
  75   36   74 1
  76   36   75 1
  77   37   76 1
  78   37   77 1
  79   37   78 1
  80   38   39 2

#	End of record

