#	Name: ASD01882635
#	Creating user name:	WinNT
#	Creation time:	15. 06. 2019 19:44

#	Modifying user name:	WinNT
#	Modification time:	15. 06. 2019 19:44

#	Program:	/corina/corina34_cracker 3.40 0067  02.08.2006

@<TRIPOS>MOLECULE
ASD01882635
  32   33    0    0    0
SMALL
NO_CHARGES


@<TRIPOS>ATOM
   1 C1            -0.0019     1.3695     0.2275 C.ar    
   2 C2             0.0823    -0.0009     0.4285 C.ar    
   3 C3             1.2734    -0.6600     0.1948 C.ar    
   4 C4             2.3815     0.0446    -0.2385 C.ar    
   5 C5             2.3002     1.4100    -0.4395 C.ar    
   6 C6             1.1109     2.0739    -0.2076 C.ar    
   7 O7            -1.1742     2.0194     0.4514 O.3     
   8 C8             1.3655    -2.1483     0.4128 C.3     
   9 C9             3.6801    -0.6769    -0.4917 C.3     
  10 C10            4.1608    -0.3781    -1.9132 C.3     
  11 C11            5.4792    -1.1107    -2.1702 C.3     
  12 C12            6.5309    -0.6356    -1.1657 C.3     
  13 C13            6.0502    -0.9344     0.2558 C.3     
  14 C14            4.7318    -0.2018     0.5128 C.3     
  15 H15           -0.7827    -0.5516     0.7676 H       
  16 H16            3.1670     1.9581    -0.7779 H       
  17 H17            1.0478     3.1405    -0.3651 H       
  18 H18           -1.2768     2.3452     1.3560 H       
  19 H19            1.1987    -2.6650    -0.5323 H       
  20 H20            2.3554    -2.3991     0.7942 H       
  21 H21            0.6092    -2.4574     1.1343 H       
  22 H22            3.5276    -1.7502    -0.3778 H       
  23 H23            3.4116    -0.7166    -2.6288 H       
  24 H24            4.3134     0.6951    -2.0271 H       
  25 H25            5.3267    -2.1840    -2.0563 H       
  26 H26            5.8217    -0.8979    -3.1829 H       
  27 H27            7.4702    -1.1575    -1.3488 H       
  28 H28            6.6835     0.4376    -1.2796 H       
  29 H29            5.8977    -2.0077     0.3696 H       
  30 H30            6.7994    -0.5959     0.9714 H       
  31 H31            4.8843     0.8714     0.3989 H       
  32 H32            4.3893    -0.4147     1.5255 H       
@<TRIPOS>BOND
   1    1    2 ar
   2    1    6 ar
   3    1    7 1
   4    2    3 ar
   5    2   15 1
   6    3    4 ar
   7    3    8 1
   8    4    5 ar
   9    4    9 1
  10    5    6 ar
  11    5   16 1
  12    6   17 1
  13    7   18 1
  14    8   19 1
  15    8   20 1
  16    8   21 1
  17    9   10 1
  18    9   14 1
  19    9   22 1
  20   10   11 1
  21   10   23 1
  22   10   24 1
  23   11   12 1
  24   11   25 1
  25   11   26 1
  26   12   13 1
  27   12   27 1
  28   12   28 1
  29   13   14 1
  30   13   29 1
  31   13   30 1
  32   14   31 1
  33   14   32 1

#	End of record

