#	Name: ASD09740106
#	Creating user name:	WinNT
#	Creation time:	15. 06. 2019 21:22

#	Modifying user name:	WinNT
#	Modification time:	15. 06. 2019 21:22

#	Program:	/corina/corina34_cracker 3.40 0067  02.08.2006

@<TRIPOS>MOLECULE
ASD09740106
  39   42    0    0    0
SMALL
NO_CHARGES


@<TRIPOS>ATOM
   1 N1            -0.0144     1.2085     0.0087 N.2     
   2 O2             0.0021    -0.0041     0.0020 O.3     
   3 C3             1.2053     1.6818    -0.0004 C.2     
   4 N4             2.0474     0.6289    -0.0141 N.2     
   5 C5             1.2719    -0.4437    -0.0125 C.2     
   6 C6             1.7139    -1.8442    -0.0242 C.2     
   7 C7             1.5914     3.1159     0.0032 C.ar    
   8 C8             0.6205     4.1203     0.0179 C.ar    
   9 C9             1.0227     5.4407     0.0212 C.ar    
  10 N10            2.3028     5.7584     0.0103 N.ar    
  11 C11            3.2502     4.8412    -0.0038 C.ar    
  12 C12            2.9351     3.4970    -0.0022 C.ar    
  13 C13            0.8946    -2.9184    -0.0222 C.2     
  14 C14            1.5686    -4.1304    -0.0351 C.2     
  15 C15            2.9223    -4.0175    -0.0474 C.2     
  16 S16            3.3884    -2.3764    -0.0507 S.3     
  17 C17            0.8701    -5.4399    -0.0354 C.ar    
  18 C18           -0.1340    -5.6970     0.8957 C.ar    
  19 C19            1.2121    -6.4145    -0.9707 C.ar    
  20 C20            0.5590    -7.6304    -0.9668 C.ar    
  21 C21           -0.4338    -7.8821    -0.0370 C.ar    
  22 C22           -0.7806    -6.9163     0.8906 C.ar    
  23 C23           -0.8446     3.7674     0.0294 C.3     
  24 C24            3.8799    -5.1811    -0.0623 C.3     
  25 F25            4.1636    -5.5346    -1.3858 F       
  26 F26            5.0644    -4.8185     0.5878 F       
  27 F27            3.3005    -6.2703     0.5973 F       
  28 H28            0.2793     6.2241     0.0325 H       
  29 H29            4.2864     5.1456    -0.0127 H       
  30 H30            3.7161     2.7511    -0.0134 H       
  31 H31           -0.1826    -2.8407    -0.0115 H       
  32 H32           -0.4055    -4.9437     1.6204 H       
  33 H33            1.9866    -6.2188    -1.6975 H       
  34 H34            0.8233    -8.3865    -1.6912 H       
  35 H35           -0.9428    -8.8346    -0.0380 H       
  36 H36           -1.5564    -7.1181     1.6143 H       
  37 H37           -1.1883     3.6764     1.0598 H       
  38 H38           -1.4110     4.5504    -0.4747 H       
  39 H39           -0.9941     2.8200    -0.4884 H       
@<TRIPOS>BOND
   1    1    2 1
   2    1    3 2
   3    2    5 1
   4    3    4 1
   5    3    7 1
   6    4    5 2
   7    5    6 1
   8    6   13 2
   9    6   16 1
  10    7    8 ar
  11    7   12 ar
  12    8    9 ar
  13    8   23 1
  14    9   10 ar
  15    9   28 1
  16   10   11 ar
  17   11   12 ar
  18   11   29 1
  19   12   30 1
  20   13   14 1
  21   13   31 1
  22   14   15 2
  23   14   17 1
  24   15   16 1
  25   15   24 1
  26   17   18 ar
  27   17   19 ar
  28   18   22 ar
  29   18   32 1
  30   19   20 ar
  31   19   33 1
  32   20   21 ar
  33   20   34 1
  34   21   22 ar
  35   21   35 1
  36   22   36 1
  37   23   37 1
  38   23   38 1
  39   23   39 1
  40   24   25 1
  41   24   26 1
  42   24   27 1

#	End of record

