#	Name: ASD03910041
#	Creating user name:	WinNT
#	Creation time:	15. 06. 2019 20:47

#	Modifying user name:	WinNT
#	Modification time:	15. 06. 2019 20:47

#	Program:	/corina/corina34_cracker 3.40 0067  02.08.2006

@<TRIPOS>MOLECULE
ASD03910041
  67   68    0    0    0
SMALL
NO_CHARGES


@<TRIPOS>ATOM
   1 C1            -0.5611    -0.4454     0.4685 C.ar    
   2 C2             0.3588     0.1136     1.3366 C.ar    
   3 C3             0.0607     1.2886     2.0019 C.ar    
   4 C4            -1.1576     1.9075     1.8014 C.ar    
   5 C5            -2.0836     1.3487     0.9302 C.ar    
   6 C6            -1.7787     0.1718     0.2589 C.ar    
   7 N7            -3.3188     1.9732     0.7248 N.am    
   8 C8            -3.4021     3.3184     0.7253 C.2     
   9 O9            -2.4264     3.9864     0.9952 O.2     
  10 C10           -4.5337     5.4878     0.4616 C.ar    
  11 C11           -4.1470     6.1919    -0.6637 C.ar    
  12 C12           -3.9923     7.5633    -0.6025 C.ar    
  13 C13           -4.2253     8.2340     0.5894 C.ar    
  14 C14           -4.6133     7.5251     1.7171 C.ar    
  15 C15           -4.7665     6.1538     1.6507 C.ar    
  16 O16           -4.0734     9.5830     0.6523 O.3     
  17 C17           -4.2057    10.1915     1.9385 C.3     
  18 C18           -5.5827     9.9162     2.4853 C.2     
  19 C19           -0.2321    -1.7261    -0.2544 C.3     
  20 C20            1.0661     1.8943     2.9470 C.3     
  21 O21           -6.3731     9.2633     1.8373 O.2     
  22 N22           -5.9360    10.3957     3.6943 N.am    
  23 C23           -4.7077     3.9925     0.3904 C.3     
  24 C24           -3.1549     9.6116     2.8875 C.3     
  25 C25           -3.9999    11.7023     1.8115 C.3     
  26 C26           -7.2747    10.1281     4.2258 C.3     
  27 C27           -8.2403    11.1568     3.6962 C.2     
  28 O28           -7.8502    12.0244     2.9513 O.2     
  29 O29           -9.5336    11.1092     4.0521 O.3     
  30 C30           -7.2405    10.1997     5.7538 C.3     
  31 C31           -6.3569     9.0751     6.2974 C.3     
  32 C32           -6.3232     9.1457     7.8023 C.2     
  33 O33           -6.9423    10.0070     8.3808 O.2     
  34 O34           -5.6053     8.2516     8.5002 O.3     
  35 C35          -10.4063    12.1320     3.5039 C.3     
  36 H36            1.3119    -0.3688     1.4956 H       
  37 H37           -1.3901     2.8248     2.3218 H       
  38 H38           -2.4965    -0.2651    -0.4195 H       
  39 H39           -4.1151     1.4380     0.5822 H       
  40 H40           -3.9653     5.6693    -1.5912 H       
  41 H41           -3.6899     8.1129    -1.4816 H       
  42 H42           -4.7949     8.0449     2.6462 H       
  43 H43           -5.0685     5.6015     2.5283 H       
  44 H44           -0.5556    -2.5760     0.3465 H       
  45 H45           -0.7467    -1.7435    -1.2152 H       
  46 H46            0.8440    -1.7851    -0.4176 H       
  47 H47            1.7113     2.5815     2.3997 H       
  48 H48            0.5433     2.4365     3.7350 H       
  49 H49            1.6708     1.1031     3.3901 H       
  50 H50           -5.3038    10.9179     4.2126 H       
  51 H51           -5.0147     3.7100    -0.6166 H       
  52 H52           -5.4708     3.6812     1.1037 H       
  53 H53           -2.1624     9.9307     2.5693 H       
  54 H54           -3.3438     9.9679     3.9001 H       
  55 H55           -3.2098     8.5232     2.8690 H       
  56 H56           -4.6983    12.1036     1.0772 H       
  57 H57           -4.1766    12.1754     2.7775 H       
  58 H58           -2.9783    11.9040     1.4895 H       
  59 H59           -7.5967     9.1340     3.9158 H       
  60 H60           -6.8344    11.1627     6.0634 H       
  61 H61           -8.2516    10.0889     6.1454 H       
  62 H62           -6.7630     8.1121     5.9878 H       
  63 H63           -5.3457     9.1859     5.9057 H       
  64 H64           -5.6143     8.3371     9.4634 H       
  65 H65          -10.0532    13.1154     3.8142 H       
  66 H66          -10.3995    12.0703     2.4157 H       
  67 H67          -11.4213    11.9782     3.8702 H       
@<TRIPOS>BOND
   1    1    2 ar
   2    1   19 1
   3    1    6 ar
   4    2    3 ar
   5    2   36 1
   6    3    4 ar
   7    3   20 1
   8    4    5 ar
   9    4   37 1
  10    5    6 ar
  11    5    7 1
  12    6   38 1
  13    7    8 am
  14    7   39 1
  15    8    9 2
  16    8   23 1
  17   10   11 ar
  18   10   15 ar
  19   10   23 1
  20   11   12 ar
  21   11   40 1
  22   12   13 ar
  23   12   41 1
  24   13   14 ar
  25   13   16 1
  26   14   15 ar
  27   14   42 1
  28   15   43 1
  29   16   17 1
  30   17   18 1
  31   17   24 1
  32   17   25 1
  33   18   21 2
  34   18   22 am
  35   19   44 1
  36   19   45 1
  37   19   46 1
  38   20   47 1
  39   20   48 1
  40   20   49 1
  41   22   26 1
  42   22   50 1
  43   23   51 1
  44   23   52 1
  45   24   53 1
  46   24   54 1
  47   24   55 1
  48   25   56 1
  49   25   57 1
  50   25   58 1
  51   26   27 1
  52   26   30 1
  53   26   59 1
  54   27   28 2
  55   27   29 1
  56   29   35 1
  57   30   31 1
  58   30   60 1
  59   30   61 1
  60   31   32 1
  61   31   62 1
  62   31   63 1
  63   32   33 2
  64   32   34 1
  65   34   64 1
  66   35   65 1
  67   35   66 1
  68   35   67 1

#	End of record

