#	Name: ASD08150470
#	Creating user name:	WinNT
#	Creation time:	15. 06. 2019 21:16

#	Modifying user name:	WinNT
#	Modification time:	15. 06. 2019 21:16

#	Program:	/corina/corina34_cracker 3.40 0067  02.08.2006

@<TRIPOS>MOLECULE
ASD08150470
  83   89    0    0    0
SMALL
NO_CHARGES


@<TRIPOS>ATOM
   1 N1             0.6001     2.1346    -1.9856 N.am    
   2 C2             1.6226     3.0103    -1.9372 C.2     
   3 C3             2.9417     2.5705    -1.7059 C.2     
   4 C4             3.2000     1.2498    -1.5272 C.2     
   5 C5             2.1266     0.3259    -1.5771 C.ar    
   6 C6             2.3395    -1.0544    -1.3979 C.ar    
   7 N7             1.3473    -1.9045    -1.4439 N.ar    
   8 C8             0.0809    -1.5183    -1.6621 C.ar    
   9 C9            -0.2262    -0.1487    -1.8533 C.ar    
  10 C10            0.8252     0.7969    -1.8098 C.ar    
  11 C11           -1.5490     0.2432    -2.0810 C.ar    
  12 C12           -2.5480    -0.7159    -2.1172 C.ar    
  13 C13           -2.2365    -2.0693    -1.9267 C.ar    
  14 C14           -0.9548    -2.4660    -1.7041 C.ar    
  15 O15            1.4042     4.1993    -2.0960 O.2     
  16 C16           -3.9539    -0.3087    -2.3581 C.ar    
  17 C17           -0.7029     2.5975    -2.2116 C.ar    
  18 C18           -1.5469     2.8478    -1.1376 C.ar    
  19 C19           -2.8308     3.3035    -1.3602 C.ar    
  20 C20           -3.2784     3.5121    -2.6585 C.ar    
  21 C21           -2.4336     3.2621    -3.7329 C.ar    
  22 C22           -1.1484     2.8115    -3.5099 C.ar    
  23 N23           -4.5787     3.9731    -2.8840 N.3     
  24 C24           -5.0029     3.6977    -4.2627 C.3     
  25 C25           -4.6922     5.4029    -2.5691 C.3     
  26 C26           -6.1546     5.8381    -2.6872 C.3     
  27 C27           -6.6486     5.5693    -4.1114 C.3     
  28 C28           -6.4746     4.0820    -4.4313 C.3     
  29 C29           -8.1054     5.9402    -4.2175 C.2     
  30 N30           -8.7563     5.7868    -5.3877 N.am    
  31 O31           -8.6921     6.3768    -3.2500 O.2     
  32 C32          -10.1725     6.1473    -5.4909 C.3     
  33 C33          -10.5104     6.4826    -6.9462 C.3     
  34 C34          -11.0354     4.9681    -5.0334 C.3     
  35 C35          -12.5133     5.3285    -5.2008 C.3     
  36 N36          -12.7859     5.6401    -6.6097 N.3     
  37 C37          -12.0035     6.7991    -7.0582 C.3     
  38 C38          -14.2217     5.8559    -6.8329 C.3     
  39 C39           -4.7979    -1.0853    -3.1565 C.ar    
  40 N40           -6.0438    -0.6892    -3.3475 N.ar    
  41 C41           -6.4948     0.4272    -2.7938 C.ar    
  42 N42           -5.7252     1.1901    -2.0307 N.ar    
  43 C43           -4.4696     0.8582    -1.7879 C.ar    
  44 N44           -7.8060     0.8073    -3.0189 N.pl3   
  45 C45           -3.7470     3.5741    -0.1947 C.3     
  46 F46           -3.2889     2.8791     0.9298 F       
  47 F47           -3.7609     4.9460     0.0788 F       
  48 F48           -5.0417     3.1484    -0.5106 F       
  49 H49            3.7495     3.2865    -1.6710 H       
  50 H50            4.2091     0.9082    -1.3501 H       
  51 H51            3.3408    -1.4176    -1.2195 H       
  52 H52           -1.7900     1.2858    -2.2271 H       
  53 H53           -3.0249    -2.8069    -1.9570 H       
  54 H54           -0.7327    -3.5130    -1.5598 H       
  55 H55           -1.1989     2.6856    -0.1282 H       
  56 H56           -2.7816     3.4238    -4.7424 H       
  57 H57           -0.4917     2.6175    -4.3450 H       
  58 H58           -4.3939     4.2808    -4.9534 H       
  59 H59           -4.8781     2.6361    -4.4759 H       
  60 H60           -4.3416     5.5798    -1.5523 H       
  61 H61           -4.0846     5.9780    -3.2678 H       
  62 H62           -6.7608     5.2732    -1.9791 H       
  63 H63           -6.2362     6.9029    -2.4687 H       
  64 H64           -6.0681     6.1639    -4.8167 H       
  65 H65           -6.7849     3.8921    -5.4588 H       
  66 H66           -7.0858     3.4894    -3.7506 H       
  67 H67           -8.2871     5.4376    -6.1615 H       
  68 H68          -10.3746     7.0137    -4.8611 H       
  69 H69           -9.9300     7.3486    -7.2644 H       
  70 H70          -10.2706     5.6298    -7.5812 H       
  71 H71          -10.8038     4.0914    -5.6383 H       
  72 H72          -10.8301     4.7520    -3.9849 H       
  73 H73          -13.1302     4.4856    -4.8894 H       
  74 H74          -12.7474     6.1968    -4.5850 H       
  75 H75          -12.2400     7.6605    -6.4336 H       
  76 H76          -12.2502     7.0243    -8.0957 H       
  77 H77          -14.5638     6.6886    -6.2183 H       
  78 H78          -14.3955     6.0849    -7.8843 H       
  79 H79          -14.7711     4.9544    -6.5618 H       
  80 H80           -4.4368    -1.9960    -3.6112 H       
  81 H81           -3.8482     1.4843    -1.1648 H       
  82 H82           -8.3811     0.2591    -3.5755 H       
  83 H83           -8.1502     1.6218    -2.6203 H       
@<TRIPOS>BOND
   1    1    2 am
   2    1   10 1
   3    1   17 1
   4    2    3 1
   5    2   15 2
   6    3    4 2
   7    3   49 1
   8    4    5 1
   9    4   50 1
  10    5    6 ar
  11    5   10 ar
  12    6    7 ar
  13    6   51 1
  14    7    8 ar
  15    8    9 ar
  16    8   14 ar
  17    9   10 ar
  18    9   11 ar
  19   11   12 ar
  20   11   52 1
  21   12   13 ar
  22   12   16 1
  23   13   14 ar
  24   13   53 1
  25   14   54 1
  26   16   39 ar
  27   16   43 ar
  28   17   18 ar
  29   17   22 ar
  30   18   19 ar
  31   18   55 1
  32   19   20 ar
  33   19   45 1
  34   20   21 ar
  35   20   23 1
  36   21   22 ar
  37   21   56 1
  38   22   57 1
  39   23   24 1
  40   23   25 1
  41   24   28 1
  42   24   58 1
  43   24   59 1
  44   25   26 1
  45   25   60 1
  46   25   61 1
  47   26   27 1
  48   26   62 1
  49   26   63 1
  50   27   28 1
  51   27   29 1
  52   27   64 1
  53   28   65 1
  54   28   66 1
  55   29   30 am
  56   29   31 2
  57   30   32 1
  58   30   67 1
  59   32   33 1
  60   32   34 1
  61   32   68 1
  62   33   37 1
  63   33   69 1
  64   33   70 1
  65   34   35 1
  66   34   71 1
  67   34   72 1
  68   35   36 1
  69   35   73 1
  70   35   74 1
  71   36   37 1
  72   36   38 1
  73   37   75 1
  74   37   76 1
  75   38   77 1
  76   38   78 1
  77   38   79 1
  78   39   40 ar
  79   39   80 1
  80   40   41 ar
  81   41   42 ar
  82   41   44 1
  83   42   43 ar
  84   43   81 1
  85   44   82 1
  86   44   83 1
  87   45   46 1
  88   45   47 1
  89   45   48 1

#	End of record

