#	Name: ASD01913780
#	Creating user name:	WinNT
#	Creation time:	15. 06. 2019 20:02

#	Modifying user name:	WinNT
#	Modification time:	15. 06. 2019 20:02

#	Program:	/corina/corina34_cracker 3.40 0067  02.08.2006

@<TRIPOS>MOLECULE
ASD01913780
  38   40    0    0    0
SMALL
NO_CHARGES


@<TRIPOS>ATOM
   1 C1            -0.0230     1.3648     0.1943 C.ar    
   2 C2             0.0051     0.0034    -0.0628 C.ar    
   3 C3            -1.1711    -0.6881    -0.2929 C.ar    
   4 C4            -2.3809    -0.0265    -0.2674 C.ar    
   5 C5            -2.4184     1.3465    -0.0084 C.ar    
   6 C6            -1.2286     2.0390     0.2284 C.ar    
   7 C7            -3.6714     2.0392     0.0189 C.1     
   8 C8            -4.6987     2.6071     0.0413 C.1     
   9 C9            -5.9517     3.2998     0.0687 C.ar    
  10 C10           -5.9981     4.6778     0.3279 C.ar    
  11 C11           -8.3759     4.5487     0.1042 C.ar    
  12 N12           -8.2991     3.2498    -0.1438 N.ar    
  13 C13           -7.1456     2.6150    -0.1680 C.ar    
  14 C14           -7.2298     5.3008     0.3438 C.ar    
  15 N15           -9.6213     5.1722     0.1181 N.am    
  16 C16           -9.8301     6.4959     0.1268 C.2     
  17 O17          -11.1228     6.8396     0.1397 O.3     
  18 C18          -11.9454     5.6370     0.1406 C.3     
  19 C19          -10.9220     4.4852     0.1194 C.3     
  20 O20           -8.9277     7.3094     0.1232 O.2     
  21 C21          -12.8040     5.5754     1.4055 C.3     
  22 C22          -12.8257     5.5883    -1.1098 C.3     
  23 F23            1.1298     2.0329     0.4176 F       
  24 H24            0.9494    -0.5203    -0.0841 H       
  25 H25           -1.1417    -1.7489    -0.4934 H       
  26 H26           -3.2976    -0.5683    -0.4476 H       
  27 H27           -1.2502     3.0999     0.4293 H       
  28 H28           -5.0926     5.2373     0.5109 H       
  29 H29           -7.1227     1.5549    -0.3732 H       
  30 H30           -7.3032     6.3603     0.5403 H       
  31 H31          -11.0435     3.8816    -0.7800 H       
  32 H32          -11.0216     3.8680     1.0123 H       
  33 H33          -13.4727     6.4357     1.4329 H       
  34 H34          -13.3923     4.6578     1.4009 H       
  35 H35          -12.1586     5.5887     2.2838 H       
  36 H36          -12.1956     5.6108    -1.9989 H       
  37 H37          -13.4140     4.6707    -1.1045 H       
  38 H38          -13.4948     6.4488    -1.1167 H       
@<TRIPOS>BOND
   1    1    2 ar
   2    1   23 1
   3    1    6 ar
   4    2    3 ar
   5    2   24 1
   6    3    4 ar
   7    3   25 1
   8    4    5 ar
   9    4   26 1
  10    5    6 ar
  11    5    7 1
  12    6   27 1
  13    7    8 3
  14    8    9 1
  15    9   10 ar
  16    9   13 ar
  17   10   14 ar
  18   10   28 1
  19   11   12 ar
  20   11   15 1
  21   11   14 ar
  22   12   13 ar
  23   13   29 1
  24   14   30 1
  25   15   16 am
  26   15   19 1
  27   16   17 1
  28   16   20 2
  29   17   18 1
  30   18   19 1
  31   18   21 1
  32   18   22 1
  33   19   31 1
  34   19   32 1
  35   21   33 1
  36   21   34 1
  37   21   35 1
  38   22   36 1
  39   22   37 1
  40   22   38 1

#	End of record

