#	Name: ASD01411083
#	Creating user name:	WinNT
#	Creation time:	15. 06. 2019 19:19

#	Modifying user name:	WinNT
#	Modification time:	15. 06. 2019 19:19

#	Program:	/corina/corina34_cracker 3.40 0067  02.08.2006

@<TRIPOS>MOLECULE
ASD01411083
  39   41    0    0    0
SMALL
NO_CHARGES


@<TRIPOS>ATOM
   1 C1            -0.1895     1.5941     0.0446 C.2     
   2 C2            -0.2899     0.1529     0.0713 C.ar    
   3 C3             1.1282     1.9033     0.0367 C.2     
   4 C4            -1.2807     2.6350     0.0328 C.3     
   5 C5             1.0444    -0.3308     0.0783 C.ar    
   6 C6            -1.3792    -0.7257     0.0886 C.ar    
   7 C7             1.6315     3.3273     0.0078 C.3     
   8 N8             1.8724     0.7564     0.0576 N.pl3   
   9 C9            -0.6479     3.9852     0.3993 C.3     
  10 C10            1.3053    -1.6998     0.1023 C.ar    
  11 C11           -1.0903    -2.0789     0.1124 C.ar    
  12 Cl12          -3.0153    -0.1454     0.0811 Cl      
  13 O13            0.5425     4.1789    -0.3698 O.3     
  14 C14            2.1396     3.7235     1.3955 C.3     
  15 C15            2.7647     3.4537    -1.0123 C.3     
  16 C16            0.2121    -2.5501     0.1189 C.ar    
  17 Cl17           2.9296    -2.3123     0.1106 Cl      
  18 C18            2.2545     3.0768    -2.3793 C.2     
  19 H19            2.8418     0.7200     0.0573 H       
  20 O20            1.1026     2.7414    -2.5229 O.2     
  21 O21            3.0796     3.1136    -3.4374 O.3     
  22 H22            2.7068     2.8632    -4.2937 H       
  23 C23            3.2843     2.7942     1.8040 C.3     
  24 C24            2.6429     5.1680     1.3611 C.3     
  25 H25           -1.7243     2.6931    -0.9611 H       
  26 H26           -2.0458     2.3755     0.7645 H       
  27 H27           -1.3542     4.7874     0.1858 H       
  28 H28           -0.3983     3.9935     1.4603 H       
  29 H29           -1.9044    -2.7884     0.1265 H       
  30 H30            1.3275     3.6388     2.1176 H       
  31 H31            3.1247     4.4824    -1.0298 H       
  32 H32            3.5811     2.7878    -0.7329 H       
  33 H33            0.3810    -3.6167     0.1376 H       
  34 H34            3.6463     3.0765     2.7927 H       
  35 H35            2.9258     1.7651     1.8285 H       
  36 H36            4.0964     2.8789     1.0819 H       
  37 H37            1.8592     5.8165     0.9695 H       
  38 H38            2.9064     5.4850     2.3702 H       
  39 H39            3.5215     5.2314     0.7193 H       
@<TRIPOS>BOND
   1    1    2 1
   2    1    3 2
   3    1    4 1
   4    2    5 ar
   5    2    6 ar
   6    3    7 1
   7    3    8 1
   8    4    9 1
   9    4   25 1
  10    4   26 1
  11    5   10 ar
  12    5    8 1
  13    6   11 ar
  14    6   12 1
  15    7   14 1
  16    7   15 1
  17    7   13 1
  18    8   19 1
  19    9   13 1
  20    9   27 1
  21    9   28 1
  22   10   16 ar
  23   10   17 1
  24   11   16 ar
  25   11   29 1
  26   14   23 1
  27   14   24 1
  28   14   30 1
  29   15   18 1
  30   15   31 1
  31   15   32 1
  32   16   33 1
  33   18   20 2
  34   18   21 1
  35   21   22 1
  36   23   34 1
  37   23   35 1
  38   23   36 1
  39   24   37 1
  40   24   38 1
  41   24   39 1

#	End of record

