#	Name: ASD01890512
#	Creating user name:	WinNT
#	Creation time:	15. 06. 2019 19:51

#	Modifying user name:	WinNT
#	Modification time:	15. 06. 2019 19:51

#	Program:	/corina/corina34_cracker 3.40 0067  02.08.2006

@<TRIPOS>MOLECULE
ASD01890512
  32   34    0    0    0
SMALL
NO_CHARGES


@<TRIPOS>ATOM
   1 C1            -0.0164     1.3562     0.0095 C.ar    
   2 C2             0.0021    -0.0041     0.0020 C.ar    
   3 C3             1.2077    -0.6967    -0.0133 C.ar    
   4 C4             2.3986    -0.0105    -0.0210 C.ar    
   5 C5             2.4050     1.3876    -0.0136 C.ar    
   6 C6             1.1939     2.0909     0.0019 C.ar    
   7 Cl7           -1.4944    -0.8839     0.0122 Cl      
   8 S8             3.7477     2.5255    -0.0204 S.3     
   9 C9             2.6520     3.8960    -0.0024 C.2     
  10 C10            1.3785     3.4828     0.0076 C.2     
  11 C11            3.0741     5.3036     0.0018 C.2     
  12 C12            2.7992     6.1020     1.0908 C.2     
  13 C13            3.7939     5.8634    -1.1627 C.ar    
  14 C14            5.1152     6.2940    -1.0294 C.ar    
  15 C15            5.7809     6.8147    -2.1196 C.ar    
  16 C16            5.1420     6.9106    -3.3433 C.ar    
  17 C17            3.8324     6.4860    -3.4821 C.ar    
  18 C18            3.1570     5.9581    -2.4014 C.ar    
  19 C19            2.1133     5.5686     2.2005 C.2     
  20 O20            1.7636     4.4025     2.1970 O.2     
  21 O21            1.8439     6.3510     3.2677 O.3     
  22 H22           -0.9611     1.8794     0.0168 H       
  23 H23            1.2083    -1.7767    -0.0187 H       
  24 H24            3.3324    -0.5530    -0.0325 H       
  25 H25            0.5487     4.1739     0.0190 H       
  26 H26            3.1094     7.1365     1.0940 H       
  27 H27            5.6149     6.2201    -0.0748 H       
  28 H28            6.8030     7.1485    -2.0178 H       
  29 H29            5.6678     7.3190    -4.1937 H       
  30 H30            3.3392     6.5642    -4.4398 H       
  31 H31            2.1350     5.6267    -2.5111 H       
  32 H32            1.3708     5.8973     3.9786 H       
@<TRIPOS>BOND
   1    1    2 ar
   2    1    6 ar
   3    1   22 1
   4    2    3 ar
   5    2    7 1
   6    3    4 ar
   7    3   23 1
   8    4    5 ar
   9    4   24 1
  10    5    6 ar
  11    5    8 1
  12    6   10 1
  13    8    9 1
  14    9   10 2
  15    9   11 1
  16   10   25 1
  17   11   12 2
  18   11   13 1
  19   12   19 1
  20   12   26 1
  21   13   14 ar
  22   13   18 ar
  23   14   15 ar
  24   14   27 1
  25   15   16 ar
  26   15   28 1
  27   16   17 ar
  28   16   29 1
  29   17   18 ar
  30   17   30 1
  31   18   31 1
  32   19   20 2
  33   19   21 1
  34   21   32 1

#	End of record

