#	Name: ASD01811753
#	Creating user name:	WinNT
#	Creation time:	15. 06. 2019 19:27

#	Modifying user name:	WinNT
#	Modification time:	15. 06. 2019 19:27

#	Program:	/corina/corina34_cracker 3.40 0067  02.08.2006

@<TRIPOS>MOLECULE
ASD01811753
  55   59    0    0    0
SMALL
NO_CHARGES


@<TRIPOS>ATOM
   1 C1            -0.0169     1.3935     0.0097 C.ar    
   2 C2             0.0021    -0.0041     0.0020 C.ar    
   3 C3            -1.1998    -0.7161     0.0102 C.ar    
   4 C4            -2.4017    -0.0447     0.0257 C.ar    
   5 C5            -2.4221     1.3523     0.0334 C.ar    
   6 C6            -1.2174     2.0607     0.0305 C.ar    
   7 C7             1.2768     2.1665     0.0015 C.3     
   8 C8             1.2509    -0.7046    -0.0146 C.1     
   9 N9             2.2417    -1.2603    -0.0279 N.1     
  10 C10           -3.5312     2.3272     0.0497 C.2     
  11 N11           -3.0490     3.5817     0.0516 N.am    
  12 C12           -1.5830     3.5243     0.0405 C.3     
  13 O13           -4.7114     2.0366     0.0599 O.2     
  14 C14           -3.8547     4.8052     0.0657 C.3     
  15 C15           -4.1208     5.2239     1.5131 C.3     
  16 O16           -2.8929     5.6115     2.1404 O.3     
  17 C17           -2.9562     6.9923     2.5314 C.3     
  18 C18           -4.4666     7.2985     2.6919 C.3     
  19 C19           -5.0643     6.4456     1.5398 C.3     
  20 C20           -1.1806    -2.2230     0.0014 C.3     
  21 C21           -1.0361    -2.7318     1.4125 C.ar    
  22 C22           -2.1625    -2.9805     2.1751 C.ar    
  23 C23           -2.0332    -3.4464     3.4689 C.ar    
  24 C24           -0.7707    -3.6654     4.0034 C.ar    
  25 C25            0.3583    -3.4152     3.2352 C.ar    
  26 C26            0.2225    -2.9543     1.9402 C.ar    
  27 N27           -0.6362    -4.1378     5.3164 N.pl3   
  28 C28            0.5281    -4.3920     5.9554 C.2     
  29 C29            0.2276    -4.8303     7.1999 C.2     
  30 C30           -1.1658    -4.8448     7.3267 C.2     
  31 N31           -1.6841    -4.4244     6.2009 N.2     
  32 H32           -3.3291    -0.5982     0.0316 H       
  33 H33            1.5788     2.3584    -1.0281 H       
  34 H34            1.1371     3.1141     0.5218 H       
  35 H35            2.0500     1.5861     0.5049 H       
  36 H36           -1.1826     4.0047     0.9332 H       
  37 H37           -1.1959     4.0126    -0.8538 H       
  38 H38           -3.3164     5.6007    -0.4495 H       
  39 H39           -4.8029     4.6217    -0.4396 H       
  40 H40           -4.5705     4.3957     2.0608 H       
  41 H41           -2.4373     7.1416     3.4782 H       
  42 H42           -2.5221     7.6250     1.7573 H       
  43 H43           -4.8348     6.9624     3.6612 H       
  44 H44           -4.6706     8.3587     2.5423 H       
  45 H45           -5.0242     6.9874     0.5949 H       
  46 H46           -6.0854     6.1422     1.7712 H       
  47 H47           -2.1117    -2.5957    -0.4256 H       
  48 H48           -0.3403    -2.5722    -0.5986 H       
  49 H49           -3.1443    -2.8100     1.7587 H       
  50 H50           -2.9133    -3.6398     4.0642 H       
  51 H51            1.3417    -3.5842     3.6484 H       
  52 H52            1.1004    -2.7594     1.3421 H       
  53 H53            1.5197    -4.2680     5.5459 H       
  54 H54            0.9378    -5.1180     7.9609 H       
  55 H55           -1.7184    -5.1467     8.2042 H       
@<TRIPOS>BOND
   1    1    2 ar
   2    1    7 1
   3    1    6 ar
   4    2    3 ar
   5    2    8 1
   6    3    4 ar
   7    3   20 1
   8    4    5 ar
   9    4   32 1
  10    5    6 ar
  11    5   10 1
  12    6   12 1
  13    7   33 1
  14    7   34 1
  15    7   35 1
  16    8    9 3
  17   10   11 am
  18   10   13 2
  19   11   12 1
  20   11   14 1
  21   12   36 1
  22   12   37 1
  23   14   15 1
  24   14   38 1
  25   14   39 1
  26   15   16 1
  27   15   19 1
  28   15   40 1
  29   16   17 1
  30   17   18 1
  31   17   41 1
  32   17   42 1
  33   18   19 1
  34   18   43 1
  35   18   44 1
  36   19   45 1
  37   19   46 1
  38   20   21 1
  39   20   47 1
  40   20   48 1
  41   21   22 ar
  42   21   26 ar
  43   22   23 ar
  44   22   49 1
  45   23   24 ar
  46   23   50 1
  47   24   25 ar
  48   24   27 1
  49   25   26 ar
  50   25   51 1
  51   26   52 1
  52   27   28 1
  53   27   31 1
  54   28   29 2
  55   28   53 1
  56   29   30 1
  57   29   54 1
  58   30   31 2
  59   30   55 1

#	End of record

