#	Name: ASD04590809
#	Creating user name:	WinNT
#	Creation time:	15. 06. 2019 20:51

#	Modifying user name:	WinNT
#	Modification time:	15. 06. 2019 20:51

#	Program:	/corina/corina34_cracker 3.40 0067  02.08.2006

@<TRIPOS>MOLECULE
ASD04590809
  23   24    0    0    0
SMALL
NO_CHARGES


@<TRIPOS>ATOM
   1 C1            -0.0168     1.3853     0.0097 C.ar    
   2 C2             0.0021    -0.0041     0.0020 C.ar    
   3 C3             1.2336    -0.6382    -0.0131 C.ar    
   4 C4             2.3785     0.1587    -0.0198 C.ar    
   5 N5             2.2602     1.4779    -0.0116 N.ar    
   6 N6             1.1164     2.0599     0.0025 N.ar    
   7 C7             4.6985     0.5930    -0.0392 C.3     
   8 C8             6.0358    -0.0929     0.2515 C.3     
   9 C9             6.1920    -1.2963    -0.6355 C.2     
  10 C10            5.1971    -1.8394    -1.2686 C.2     
  11 C11            3.7899    -1.3216    -1.1911 C.3     
  12 N12            3.6390    -0.4295    -0.0345 N.3     
  13 Cl13          -1.5317     2.2330     0.0214 Cl      
  14 H14           -0.9161    -0.5727     0.0081 H       
  15 H15            1.3051    -1.7158    -0.0193 H       
  16 H16            4.4932     1.3367     0.7307 H       
  17 H17            4.7385     1.0744    -1.0163 H       
  18 H18            6.8506     0.6058     0.0615 H       
  19 H19            6.0635    -0.4058     1.2953 H       
  20 H20            7.1750    -1.7283    -0.7511 H       
  21 H21            5.3916    -2.7067    -1.8821 H       
  22 H22            3.5565    -0.7730    -2.1037 H       
  23 H23            3.1016    -2.1608    -1.0913 H       
@<TRIPOS>BOND
   1    1    2 ar
   2    1    6 ar
   3    1   13 1
   4    2    3 ar
   5    2   14 1
   6    3    4 ar
   7    3   15 1
   8    4    5 ar
   9    4   12 1
  10    5    6 ar
  11    7    8 1
  12    7   12 1
  13    7   16 1
  14    7   17 1
  15    8    9 1
  16    8   18 1
  17    8   19 1
  18    9   10 2
  19    9   20 1
  20   10   11 1
  21   10   21 1
  22   11   12 1
  23   11   22 1
  24   11   23 1

#	End of record

