#	Name: ASD01885193
#	Creating user name:	WinNT
#	Creation time:	15. 06. 2019 19:49

#	Modifying user name:	WinNT
#	Modification time:	15. 06. 2019 19:49

#	Program:	/corina/corina34_cracker 3.40 0067  02.08.2006

@<TRIPOS>MOLECULE
ASD01885193
  53   57    0    0    0
SMALL
NO_CHARGES


@<TRIPOS>ATOM
   1 C1            -0.0036     1.4595     0.1788 C.2     
   2 C2             0.0170    -0.0042     0.1797 C.2     
   3 C3             1.2465    -0.6462    -0.0133 C.2     
   4 C4             2.4044     0.1333    -0.1991 C.2     
   5 C5             2.3457     1.4782    -0.1935 C.2     
   6 N6             1.1712     2.1454    -0.0093 N.pl3   
   7 C7             0.8371     3.4679     0.0391 C.2     
   8 N8            -0.4513     3.5390     0.2431 N.2     
   9 N9            -0.9570     2.3582     0.3221 N.2     
  10 C10            1.7813     4.6324    -0.1146 C.3     
  11 N11            1.3225    -2.0264    -0.0210 N.pl3   
  12 C12            2.0977    -2.7391     1.0035 C.3     
  13 C13            3.0920    -3.6741     0.3078 C.3     
  14 C14            2.3356    -4.5892    -0.6578 C.3     
  15 C15            1.6398    -3.7427    -1.7262 C.3     
  16 C16            0.6245    -2.8088    -1.0503 C.3     
  17 C17            3.3063    -5.5335    -1.3190 C.ar    
  18 C18            3.1552    -6.8991    -1.1659 C.ar    
  19 C19            4.0456    -7.7652    -1.7724 C.ar    
  20 C20            5.0869    -7.2659    -2.5322 C.ar    
  21 C21            5.2374    -5.9004    -2.6860 C.ar    
  22 C22            4.3444    -5.0344    -2.0831 C.ar    
  23 C23            1.8736     5.0157    -1.5691 C.ar    
  24 C24            1.0019     5.9514    -2.0939 C.ar    
  25 C25            1.0865     6.3030    -3.4281 C.ar    
  26 C26            2.0431     5.7192    -4.2374 C.ar    
  27 C27            2.9155     4.7842    -3.7123 C.ar    
  28 C28            2.8336     4.4358    -2.3771 C.ar    
  29 C29           -1.1853    -0.7578     0.3729 C.1     
  30 N30           -2.1391    -1.3556     0.5261 N.1     
  31 H31            3.3556    -0.3561    -0.3481 H       
  32 H32            3.2540     2.0442    -0.3391 H       
  33 H33            1.4098     5.4798     0.4617 H       
  34 H34            2.7689     4.3500     0.2501 H       
  35 H35            2.6403    -2.0201     1.6172 H       
  36 H36            1.4243    -3.3233     1.6307 H       
  37 H37            3.8206    -3.0827    -0.2468 H       
  38 H38            3.6063    -4.2789     1.0546 H       
  39 H39            1.5902    -5.1623    -0.1064 H       
  40 H40            2.3821    -3.1507    -2.2617 H       
  41 H41            1.1206    -4.3964    -2.4272 H       
  42 H42           -0.1679    -3.4007    -0.5922 H       
  43 H43            0.1972    -2.1348    -1.7928 H       
  44 H44            2.3417    -7.2892    -0.5723 H       
  45 H45            3.9280    -8.8321    -1.6522 H       
  46 H46            5.7830    -7.9426    -3.0054 H       
  47 H47            6.0511    -5.5103    -3.2794 H       
  48 H48            4.4621    -3.9675    -2.2033 H       
  49 H49            0.2544     6.4075    -1.4616 H       
  50 H50            0.4050     7.0335    -3.8383 H       
  51 H51            2.1088     5.9933    -5.2799 H       
  52 H52            3.6627     4.3278    -4.3447 H       
  53 H53            3.5152     3.7053    -1.9669 H       
@<TRIPOS>BOND
   1    1    2 1
   2    1    6 1
   3    1    9 2
   4    2   29 1
   5    2    3 2
   6    3    4 1
   7    3   11 1
   8    4    5 2
   9    4   31 1
  10    5    6 1
  11    5   32 1
  12    6    7 1
  13    7    8 2
  14    7   10 1
  15    8    9 1
  16   10   23 1
  17   10   33 1
  18   10   34 1
  19   11   12 1
  20   11   16 1
  21   12   13 1
  22   12   35 1
  23   12   36 1
  24   13   14 1
  25   13   37 1
  26   13   38 1
  27   14   15 1
  28   14   17 1
  29   14   39 1
  30   15   16 1
  31   15   40 1
  32   15   41 1
  33   16   42 1
  34   16   43 1
  35   17   18 ar
  36   17   22 ar
  37   18   19 ar
  38   18   44 1
  39   19   20 ar
  40   19   45 1
  41   20   21 ar
  42   20   46 1
  43   21   22 ar
  44   21   47 1
  45   22   48 1
  46   23   24 ar
  47   23   28 ar
  48   24   25 ar
  49   24   49 1
  50   25   26 ar
  51   25   50 1
  52   26   27 ar
  53   26   51 1
  54   27   28 ar
  55   27   52 1
  56   28   53 1
  57   29   30 3

#	End of record

