#	Name: ASD03730348
#	Creating user name:	WinNT
#	Creation time:	15. 06. 2019 20:44

#	Modifying user name:	WinNT
#	Modification time:	15. 06. 2019 20:44

#	Program:	/corina/corina34_cracker 3.40 0067  02.08.2006

@<TRIPOS>MOLECULE
ASD03730348
  69   74    0    0    0
SMALL
NO_CHARGES


@<TRIPOS>ATOM
   1 C1            -0.4052     1.8135    -0.9722 C.2     
   2 C2            -0.0577     0.4130    -0.6502 C.ar    
   3 C3             1.2412    -0.0532    -0.8610 C.ar    
   4 C4             1.5589    -1.3608    -0.5580 C.ar    
   5 C5             0.5934    -2.2100    -0.0465 C.ar    
   6 C6            -0.6956    -1.7544     0.1647 C.ar    
   7 C7            -1.0252    -0.4470    -0.1288 C.ar    
   8 O8             0.4608     2.5876    -1.3303 O.2     
   9 N9            -1.6831     2.2303    -0.8741 N.am    
  10 C10            2.2937     0.8699    -1.4188 C.3     
  11 O11            3.8085    -6.0582    -2.6013 O.3     
  12 C12            4.7193    -7.1363    -2.8860 C.3     
  13 O13            5.6400    -6.5652    -3.8341 O.3     
  14 C14            5.6476    -5.2245    -3.5747 C.ar    
  15 C15            4.5206    -4.9132    -2.8174 C.ar    
  16 C16            6.5401    -4.2285    -3.9283 C.ar    
  17 C17            6.3201    -2.9121    -3.5340 C.ar    
  18 C18            5.1864    -2.6121    -2.7848 C.ar    
  19 C19            4.2979    -3.6039    -2.4255 C.ar    
  20 O20            7.0733    -1.7974    -3.7583 O.3     
  21 C21            5.2135    -1.1267    -2.5420 C.3     
  22 C22            6.2634    -0.6255    -3.5431 C.3     
  23 N23            3.5399     0.1259    -1.6178 N.am    
  24 C24            3.8733    -0.4891    -2.7700 C.2     
  25 C25            5.5808    -0.7859    -1.1283 C.ar    
  26 C26            6.6690    -1.0690    -0.3334 C.ar    
  27 C27            6.7184    -0.5988     0.9669 C.ar    
  28 C28            5.6722     0.1554     1.4663 C.ar    
  29 C29            4.5796     0.4408     0.6743 C.ar    
  30 C30            4.5215    -0.0280    -0.6359 C.ar    
  31 O31            3.2191    -0.5209    -3.7909 O.2     
  32 C32           -2.0275     3.6180    -1.1932 C.3     
  33 C33           -3.5309     3.8274    -1.0017 C.3     
  34 N34           -3.8763     5.2189    -1.3216 N.3     
  35 C35           -3.6632     5.4996    -2.7477 C.3     
  36 C36           -3.6546     7.0128    -2.9740 C.3     
  37 C37           -5.2579     5.5228    -0.9259 C.3     
  38 C38           -5.3280     5.6919     0.5931 C.3     
  39 H39            2.5634    -1.7228    -0.7205 H       
  40 H40            0.8472    -3.2332     0.1884 H       
  41 H41           -1.4445    -2.4222     0.5641 H       
  42 H42           -2.0308    -0.0914     0.0404 H       
  43 H43           -2.3748     1.6115    -0.5922 H       
  44 H44            1.9547     1.2729    -2.3731 H       
  45 H45            2.4667     1.6882    -0.7197 H       
  46 H46            5.2432    -7.4441    -1.9811 H       
  47 H47            4.1884    -7.9795    -3.3279 H       
  48 H48            7.4134    -4.4741    -4.5142 H       
  49 H49            3.4260    -3.3587    -1.8371 H       
  50 H50            6.8562     0.1808    -3.1112 H       
  51 H51            5.7910    -0.3055    -4.4718 H       
  52 H52            7.4848    -1.6584    -0.7253 H       
  53 H53            7.5721    -0.8199     1.5903 H       
  54 H54            5.7108     0.5223     2.4813 H       
  55 H55            3.7663     1.0300     1.0715 H       
  56 H56           -1.4800     4.2895    -0.5319 H       
  57 H57           -1.7601     3.8299    -2.2285 H       
  58 H58           -4.0785     3.1559    -1.6630 H       
  59 H59           -3.7983     3.6155     0.0336 H       
  60 H60           -2.7076     5.0798    -3.0619 H       
  61 H61           -4.4669     5.0497    -3.3306 H       
  62 H62           -2.9259     7.4755    -2.3085 H       
  63 H63           -3.3867     7.2238    -4.0092 H       
  64 H64           -4.6452     7.4170    -2.7654 H       
  65 H65           -5.5799     6.4451    -1.4094 H       
  66 H66           -5.9114     4.7054    -1.2310 H       
  67 H67           -4.9415     4.7948     1.0767 H       
  68 H68           -4.7285     6.5521     0.8909 H       
  69 H69           -6.3638     5.8492     0.8938 H       
@<TRIPOS>BOND
   1    1    2 1
   2    1    8 2
   3    1    9 am
   4    2    3 ar
   5    2    7 ar
   6    3    4 ar
   7    3   10 1
   8    4    5 ar
   9    4   39 1
  10    5    6 ar
  11    5   40 1
  12    6    7 ar
  13    6   41 1
  14    7   42 1
  15    9   32 1
  16    9   43 1
  17   10   23 1
  18   10   44 1
  19   10   45 1
  20   11   12 1
  21   11   15 1
  22   12   13 1
  23   12   46 1
  24   12   47 1
  25   13   14 1
  26   14   15 ar
  27   14   16 ar
  28   15   19 ar
  29   16   17 ar
  30   16   48 1
  31   17   18 ar
  32   17   20 1
  33   18   19 ar
  34   18   21 1
  35   19   49 1
  36   20   22 1
  37   21   22 1
  38   21   24 1
  39   21   25 1
  40   22   50 1
  41   22   51 1
  42   23   24 am
  43   23   30 1
  44   24   31 2
  45   25   26 ar
  46   25   30 ar
  47   26   27 ar
  48   26   52 1
  49   27   28 ar
  50   27   53 1
  51   28   29 ar
  52   28   54 1
  53   29   30 ar
  54   29   55 1
  55   32   33 1
  56   32   56 1
  57   32   57 1
  58   33   34 1
  59   33   58 1
  60   33   59 1
  61   34   35 1
  62   34   37 1
  63   35   36 1
  64   35   60 1
  65   35   61 1
  66   36   62 1
  67   36   63 1
  68   36   64 1
  69   37   38 1
  70   37   65 1
  71   37   66 1
  72   38   67 1
  73   38   68 1
  74   38   69 1

#	End of record

