#	Name: ASD01814212
#	Creating user name:	WinNT
#	Creation time:	15. 06. 2019 19:31

#	Modifying user name:	WinNT
#	Modification time:	15. 06. 2019 19:31

#	Program:	/corina/corina34_cracker 3.40 0067  02.08.2006

@<TRIPOS>MOLECULE
ASD01814212
  51   55    0    0    0
SMALL
NO_CHARGES


@<TRIPOS>ATOM
   1 N1            -0.9070     1.8977     1.5349 N.2     
   2 C2            -1.0996     0.6533     1.9041 C.2     
   3 C3            -0.0059    -0.1714     2.2090 C.2     
   4 C4             1.2514     0.3287     2.1189 C.2     
   5 N5             1.4236     1.6273     1.7322 N.pl3   
   6 C6             0.3305     2.4024     1.4424 C.2     
   7 N7             2.5635     2.4169     1.5490 N.2     
   8 C8             2.1911     3.6211     1.1646 C.2     
   9 C9             0.8091     3.6571     1.0842 C.2     
  10 C10            2.7335     4.9755     0.7796 C.3     
  11 N11            1.5925     5.8391     0.4602 N.am    
  12 C12            0.3810     5.0336     0.6446 C.3     
  13 C13            1.6467     7.1283     0.0711 C.2     
  14 O14            0.6298     7.7063    -0.2616 O.2     
  15 C15            2.9388     7.8378     0.0487 C.ar    
  16 C16            3.2650     8.6737    -1.0287 C.ar    
  17 C17            3.8423     7.6850     1.1042 C.ar    
  18 C18            5.0474     8.3501     1.0786 C.ar    
  19 C19            5.3698     9.1736     0.0081 C.ar    
  20 C20            4.4819     9.3367    -1.0401 C.ar    
  21 O21            2.3932     8.8326    -2.0558 O.3     
  22 C22            2.7296     9.8045    -3.0478 C.3     
  23 C23            1.4676    10.2476    -3.8215 C.3     
  24 C24            2.4424    -0.5364     2.4414 C.3     
  25 Cl25          -0.2603    -1.8175     2.6980 Cl      
  26 C26           -2.5010     0.1078     2.0015 C.3     
  27 O27            1.2914    11.6623    -3.7237 O.3     
  28 C28            3.6348     9.1798    -4.1326 C.3     
  29 O29            3.2004     9.7856    -5.3695 O.3     
  30 C30            1.7597     9.8382    -5.2821 C.3     
  31 F31            6.5547     9.8224    -0.0076 F       
  32 H32            3.2953     5.3988     1.6122 H       
  33 H33            3.3800     4.8801    -0.0928 H       
  34 H34           -0.1660     4.9677    -0.2958 H       
  35 H35           -0.2502     5.4861     1.4094 H       
  36 H36            3.5952     7.0460     1.9391 H       
  37 H37            5.7447     8.2313     1.8947 H       
  38 H38            4.7371     9.9815    -1.8680 H       
  39 H39            3.2200    10.6631    -2.5891 H       
  40 H40            0.5872     9.7253    -3.4472 H       
  41 H41            2.1018    -1.5315     2.7277 H       
  42 H42            3.0855    -0.6109     1.5645 H       
  43 H43            3.0014    -0.0927     3.2653 H       
  44 H44           -3.2137     0.8865     1.7297 H       
  45 H45           -2.6098    -0.7376     1.3220 H       
  46 H46           -2.6931    -0.2200     3.0231 H       
  47 H47            0.5481    12.0027    -4.2402 H       
  48 H48            4.6802     9.4201    -3.9390 H       
  49 H49            3.4933     8.0996    -4.1689 H       
  50 H50            1.3307     8.8590    -5.4947 H       
  51 H51            1.3647    10.5843    -5.9715 H       
@<TRIPOS>BOND
   1    1    2 2
   2    1    6 1
   3    2    3 1
   4    2   26 1
   5    3    4 2
   6    3   25 1
   7    4    5 1
   8    4   24 1
   9    5    7 1
  10    5    6 1
  11    6    9 2
  12    7    8 2
  13    8   10 1
  14    8    9 1
  15    9   12 1
  16   10   11 1
  17   10   32 1
  18   10   33 1
  19   11   12 1
  20   11   13 am
  21   12   34 1
  22   12   35 1
  23   13   14 2
  24   13   15 1
  25   15   17 ar
  26   15   16 ar
  27   16   20 ar
  28   16   21 1
  29   17   18 ar
  30   17   36 1
  31   18   19 ar
  32   18   37 1
  33   19   20 ar
  34   19   31 1
  35   20   38 1
  36   21   22 1
  37   22   28 1
  38   22   23 1
  39   22   39 1
  40   23   30 1
  41   23   27 1
  42   23   40 1
  43   24   41 1
  44   24   42 1
  45   24   43 1
  46   26   44 1
  47   26   45 1
  48   26   46 1
  49   27   47 1
  50   28   29 1
  51   28   48 1
  52   28   49 1
  53   29   30 1
  54   30   50 1
  55   30   51 1

#	End of record

