#	Name: ASD02198618
#	Creating user name:	WinNT
#	Creation time:	15. 06. 2019 20:19

#	Modifying user name:	WinNT
#	Modification time:	15. 06. 2019 20:19

#	Program:	/corina/corina34_cracker 3.40 0067  02.08.2006

@<TRIPOS>MOLECULE
ASD02198618
  38   41    0    0    0
SMALL
NO_CHARGES


@<TRIPOS>ATOM
   1 C1             0.0838     1.0131    -0.1053 C.2     
   2 C2             0.3587    -0.3127    -0.1914 C.2     
   3 N3             1.6359    -0.7567    -0.2009 N.pl3   
   4 N4             2.6523     0.0214    -0.1315 N.2     
   5 C5             2.5275     1.3280    -0.0446 C.2     
   6 C6             1.1757     1.9106    -0.0265 C.2     
   7 C7             1.8593    -2.1346    -0.2905 C.ar    
   8 C8             0.7919    -3.0196    -0.2089 C.ar    
   9 C9             1.0160    -4.3795    -0.2982 C.ar    
  10 C10            2.3012    -4.8603    -0.4687 C.ar    
  11 C11            3.3665    -3.9818    -0.5498 C.ar    
  12 C12            3.1489    -2.6208    -0.4670 C.ar    
  13 C13            3.7213     2.1942     0.0342 C.2     
  14 N14            4.8646     1.9379     0.7352 N.pl3   
  15 N15            5.7377     3.0148     0.5364 N.2     
  16 C16            5.1571     3.8882    -0.2485 C.2     
  17 C17            3.8930     3.4108    -0.5911 C.2     
  18 C18            5.1194     0.7979     1.5170 C.2     
  19 C19            4.2013     0.2595     2.3297 C.2     
  20 O20            1.0035     3.1177     0.0524 O.2     
  21 C21            6.3411     0.1380     1.5031 C.2     
  22 C22            6.4138    -0.9252     2.3040 C.2     
  23 S23            4.8815    -1.1466     3.1378 S.3     
  24 C24           -0.1415    -5.3405    -0.2093 C.3     
  25 F25           -0.6508    -5.5768    -1.4907 F       
  26 F26            0.2957    -6.5467     0.3485 F       
  27 F27           -1.1437    -4.7901     0.5967 F       
  28 H28           -0.9347     1.3723    -0.1014 H       
  29 H29           -0.4530    -1.0226    -0.2529 H       
  30 H30           -0.2122    -2.6447    -0.0754 H       
  31 H31            2.4737    -5.9241    -0.5382 H       
  32 H32            4.3691    -4.3607    -0.6823 H       
  33 H33            3.9811    -1.9354    -0.5309 H       
  34 H34            5.5880     4.8219    -0.5786 H       
  35 H35            3.1750     3.9076    -1.2267 H       
  36 H36            3.1970     0.6319     2.4679 H       
  37 H37            7.1692     0.4613     0.8899 H       
  38 H38            7.2820    -1.5569     2.4210 H       
@<TRIPOS>BOND
   1    1    2 2
   2    1    6 1
   3    1   28 1
   4    2    3 1
   5    2   29 1
   6    3    4 1
   7    3    7 1
   8    4    5 2
   9    5    6 1
  10    5   13 1
  11    6   20 2
  12    7    8 ar
  13    7   12 ar
  14    8    9 ar
  15    8   30 1
  16    9   10 ar
  17    9   24 1
  18   10   11 ar
  19   10   31 1
  20   11   12 ar
  21   11   32 1
  22   12   33 1
  23   13   14 1
  24   13   17 2
  25   14   15 1
  26   14   18 1
  27   15   16 2
  28   16   17 1
  29   16   34 1
  30   17   35 1
  31   18   21 1
  32   18   19 2
  33   19   23 1
  34   19   36 1
  35   21   22 2
  36   21   37 1
  37   22   23 1
  38   22   38 1
  39   24   25 1
  40   24   26 1
  41   24   27 1

#	End of record

