#	Name: ASD01510087
#	Creating user name:	WinNT
#	Creation time:	15. 06. 2019 19:21

#	Modifying user name:	WinNT
#	Modification time:	15. 06. 2019 19:21

#	Program:	/corina/corina34_cracker 3.40 0067  02.08.2006

@<TRIPOS>MOLECULE
ASD01510087
  47   49    0    0    0
SMALL
NO_CHARGES


@<TRIPOS>ATOM
   1 C1             1.7152     4.0486    -6.0502 C.ar    
   2 C2             2.0536     3.0479    -6.9304 C.ar    
   3 C3             3.3334     2.5200    -6.9462 C.ar    
   4 C4             4.2796     3.0069    -6.0657 C.ar    
   5 C5             3.9438     4.0146    -5.1775 C.ar    
   6 C6             2.6600     4.5596    -5.1458 C.ar    
   7 S7             4.8774     4.8612    -3.9362 S.3     
   8 C8             3.5373     5.9004    -3.4247 C.2     
   9 N9             2.4783     5.5562    -4.2055 N.pl3   
  10 C10            3.5628     6.8672    -2.4314 C.2     
  11 C11            4.6158     7.1666    -1.5636 C.2     
  12 N12            4.4184     8.1363    -0.6875 N.am    
  13 C13            3.1982     8.7736    -0.6965 C.2     
  14 S14            2.2681     7.9975    -1.9919 S.3     
  15 C15            5.4647     8.5204     0.2633 C.3     
  16 C16            6.3377     9.6150    -0.3538 C.3     
  17 O17            5.6731     6.5582    -1.6122 O.2     
  18 C18            2.7937     9.7860     0.1129 C.2     
  19 C19            1.4018    10.2426     0.0751 C.ar    
  20 C20           -1.1773    11.1229     0.0103 C.ar    
  21 C21           -0.9358     9.7624    -0.1514 C.ar    
  22 C22            0.3689     9.3145    -0.1186 C.ar    
  23 N23            1.1247    11.5369     0.2307 N.ar    
  24 C24           -0.1156    11.9842     0.2030 C.ar    
  25 C25            2.2228    12.4842     0.4376 C.3     
  26 C26            1.1827     6.2232    -4.0550 C.3     
  27 H27            0.7124     4.4494    -6.0577 H       
  28 H28            1.3118     2.6687    -7.6177 H       
  29 H29            3.5896     1.7339    -7.6410 H       
  30 H30            5.2807     2.6016    -6.0698 H       
  31 H31            5.0049     8.8949     1.1779 H       
  32 H32            6.0811     7.6520     0.4957 H       
  33 H33            5.7213    10.4834    -0.5862 H       
  34 H34            7.1162     9.9008     0.3536 H       
  35 H35            6.7975     9.2406    -1.2684 H       
  36 H36            3.4977    10.2547     0.7844 H       
  37 H37           -2.1883    11.5022    -0.0108 H       
  38 H38           -1.7521     9.0718    -0.3033 H       
  39 H39            0.5911     8.2648    -0.2408 H       
  40 H40           -0.3031    13.0404     0.3281 H       
  41 H41            2.6350    12.7790    -0.5275 H       
  42 H42            1.8488    13.3661     0.9576 H       
  43 H43            3.0018    12.0123     1.0365 H       
  44 H44            0.4786     5.8175    -4.7815 H       
  45 H45            0.8024     6.0552    -3.0474 H       
  46 H46            1.3031     7.2933    -4.2241 H       
  47 Cl47          12.1162    18.3661     6.1779 Cl      
@<TRIPOS>BOND
   1    1    2 ar
   2    1    6 ar
   3    1   27 1
   4    2    3 ar
   5    2   28 1
   6    3    4 ar
   7    3   29 1
   8    4    5 ar
   9    4   30 1
  10    5    7 1
  11    5    6 ar
  12    6    9 1
  13    7    8 1
  14    8    9 1
  15    8   10 2
  16    9   26 1
  17   10   11 1
  18   10   14 1
  19   11   12 am
  20   11   17 2
  21   12   13 1
  22   12   15 1
  23   13   14 1
  24   13   18 2
  25   15   16 1
  26   15   31 1
  27   15   32 1
  28   16   33 1
  29   16   34 1
  30   16   35 1
  31   18   19 1
  32   18   36 1
  33   19   23 ar
  34   19   22 ar
  35   20   21 ar
  36   20   24 ar
  37   20   37 1
  38   21   22 ar
  39   21   38 1
  40   22   39 1
  41   23   24 ar
  42   23   25 1
  43   24   40 1
  44   25   41 1
  45   25   42 1
  46   25   43 1
  47   26   44 1
  48   26   45 1
  49   26   46 1

#	End of record

