#	Name: ASD01028813
#	Creating user name:	WinNT
#	Creation time:	15. 06. 2019 18:58

#	Modifying user name:	WinNT
#	Modification time:	15. 06. 2019 18:58

#	Program:	/corina/corina34_cracker 3.40 0067  02.08.2006

@<TRIPOS>MOLECULE
ASD01028813
  58   63    0    0    0
SMALL
NO_CHARGES


@<TRIPOS>ATOM
   1 N1            -0.0178     1.4642     0.0101 N.3     
   2 C2             0.0021    -0.0041     0.0020 C.3     
   3 C3             0.6797    -0.4993    -1.2777 C.3     
   4 C4             2.1079     0.0494    -1.3384 C.3     
   5 C5             2.0615     1.5788    -1.2797 C.3     
   6 C6             1.3439     2.0138     0.0000 C.3     
   7 O7             2.8583    -0.4485    -0.2290 O.3     
   8 N8             2.5209    -0.9700    -4.9002 N.ar    
   9 C9             1.9852    -0.5923    -3.7644 C.ar    
  10 C10            2.7602    -0.3856    -2.6253 C.ar    
  11 C11            4.1113    -0.5770    -2.6755 C.ar    
  12 C12            4.6822    -0.9833    -3.8977 C.ar    
  13 N13            5.9982    -1.1866    -4.0106 N.ar    
  14 C14            6.5422    -1.5650    -5.1442 C.ar    
  15 C15            5.7806    -1.7737    -6.2861 C.ar    
  16 C16            4.4091    -1.5819    -6.2426 C.ar    
  17 C17            3.8337    -1.1740    -5.0132 C.ar    
  18 N18            3.6231    -1.7826    -7.3680 N.pl3   
  19 C19            3.0486    -3.1037    -7.6342 C.3     
  20 C20            2.6745     0.4889    -9.9163 C.2     
  21 C21            1.9831     0.7527   -11.1146 C.2     
  22 C22            1.2913    -0.2511   -11.7144 C.2     
  23 C23            1.2693    -1.5406   -11.1386 C.2     
  24 N24            1.9132    -1.7900   -10.0208 N.2     
  25 N25            2.6337    -0.7813    -9.3790 N.pl3   
  26 N26            3.8328     0.5008    -8.1278 N.2     
  27 N27            3.4224     1.2219    -9.1116 N.2     
  28 C28            3.3804    -0.7288    -8.2442 C.2     
  29 C29            0.5092    -2.6271   -11.8042 C.ar    
  30 C30            0.4804    -3.9032   -11.2456 C.ar    
  31 C31           -0.2292    -4.9126   -11.8693 C.ar    
  32 C32           -0.9103    -4.6570   -13.0479 C.ar    
  33 C33           -0.8843    -3.3899   -13.6068 C.ar    
  34 C34           -0.1825    -2.3729   -12.9867 C.ar    
  35 F35           -1.5505    -3.1461   -14.7566 F       
  36 F36           -0.2579    -6.1503   -11.3286 F       
  37 H37           -0.5582     1.8228    -0.7629 H       
  38 H38            0.5557    -0.3645     0.8690 H       
  39 H39           -1.0198    -0.3814     0.0413 H       
  40 H40            0.7083    -1.5890    -1.2760 H       
  41 H41            0.1187    -0.1507    -2.1448 H       
  42 H42            3.0774     1.9739    -1.2795 H       
  43 H43            1.5223     1.9601    -2.1469 H       
  44 H44            1.2966     3.1021     0.0379 H       
  45 H45            1.8912     1.6439     0.8670 H       
  46 H46            3.7746    -0.1405    -0.2040 H       
  47 H47            0.9177    -0.4368    -3.7109 H       
  48 H48            4.7261    -0.4208    -1.8014 H       
  49 H49            7.6104    -1.7174    -5.1896 H       
  50 H50            6.2555    -2.0842    -7.2050 H       
  51 H51            2.0692    -3.1760    -7.1612 H       
  52 H52            2.9439    -3.2443    -8.7100 H       
  53 H53            3.7053    -3.8738    -7.2293 H       
  54 H54            2.0024     1.7404   -11.5511 H       
  55 H55            0.7564    -0.0624   -12.6334 H       
  56 H56            1.0117    -4.1036   -10.3270 H       
  57 H57           -1.4630    -5.4480   -13.5328 H       
  58 H58           -0.1668    -1.3840   -13.4206 H       
@<TRIPOS>BOND
   1    1    2 1
   2    1    6 1
   3    1   37 1
   4    2    3 1
   5    2   38 1
   6    2   39 1
   7    3    4 1
   8    3   40 1
   9    3   41 1
  10    4    5 1
  11    4    7 1
  12    4   10 1
  13    5    6 1
  14    5   42 1
  15    5   43 1
  16    6   44 1
  17    6   45 1
  18    7   46 1
  19    8    9 ar
  20    8   17 ar
  21    9   10 ar
  22    9   47 1
  23   10   11 ar
  24   11   12 ar
  25   11   48 1
  26   12   13 ar
  27   12   17 ar
  28   13   14 ar
  29   14   15 ar
  30   14   49 1
  31   15   16 ar
  32   15   50 1
  33   16   17 ar
  34   16   18 1
  35   18   19 1
  36   18   28 1
  37   19   51 1
  38   19   52 1
  39   19   53 1
  40   20   21 1
  41   20   25 1
  42   20   27 2
  43   21   22 2
  44   21   54 1
  45   22   23 1
  46   22   55 1
  47   23   24 2
  48   23   29 1
  49   24   25 1
  50   25   28 1
  51   26   27 1
  52   26   28 2
  53   29   30 ar
  54   29   34 ar
  55   30   31 ar
  56   30   56 1
  57   31   32 ar
  58   31   36 1
  59   32   33 ar
  60   32   57 1
  61   33   34 ar
  62   33   35 1
  63   34   58 1

#	End of record

