#	Name: ASD02198242
#	Creating user name:	WinNT
#	Creation time:	15. 06. 2019 20:19

#	Modifying user name:	WinNT
#	Modification time:	15. 06. 2019 20:19

#	Program:	/corina/corina34_cracker 3.40 0067  02.08.2006

@<TRIPOS>MOLECULE
ASD02198242
  38   40    0    0    0
SMALL
NO_CHARGES


@<TRIPOS>ATOM
   1 C1             0.5806     1.3234    -0.6372 C.2     
   2 C2             0.4806    -0.0299    -0.5424 C.2     
   3 C3            -0.8324    -0.7316    -0.3081 C.3     
   4 S4             2.2542     1.7858    -0.9108 S.3     
   5 C5             2.7646     0.1034    -0.8863 C.2     
   6 C6             1.6679    -0.7082    -0.6769 C.2     
   7 C7             4.0862    -0.3460    -1.0546 C.2     
   8 C8             5.1535     0.6132    -1.4155 C.ar    
   9 O9             4.3528    -1.5265    -0.9030 O.2     
  10 N10            1.7571    -2.0940    -0.6080 N.pl3   
  11 N11           -0.4802     2.2061    -0.5386 N.pl3   
  12 C12           -0.2444     3.5832    -0.5269 C.ar    
  13 C13           -1.1451     4.4490    -1.1347 C.ar    
  14 C14            4.8516     1.7434    -2.1767 C.ar    
  15 C15           -0.9092     5.8095    -1.1208 C.ar    
  16 C16            0.2223     6.3105    -0.5033 C.ar    
  17 C17            1.1212     5.4515     0.1022 C.ar    
  18 C18            0.8883     4.0903     0.0974 C.ar    
  19 C19            5.8505     2.6339    -2.5101 C.ar    
  20 C20            7.1513     2.4081    -2.0916 C.ar    
  21 C21            7.4568     1.2882    -1.3360 C.ar    
  22 C22            6.4650     0.3941    -0.9913 C.ar    
  23 Cl23           8.4037     3.5328    -2.5160 Cl      
  24 H24           -1.2979    -0.9609    -1.2667 H       
  25 H25           -0.6570    -1.6567     0.2411 H       
  26 H26           -1.4918    -0.0849     0.2706 H       
  27 H27            2.6176    -2.5303    -0.7092 H       
  28 H28            0.9589    -2.6246    -0.4588 H       
  29 H29           -1.3877     1.8689    -0.4777 H       
  30 H30           -2.0286     4.0583    -1.6177 H       
  31 H31            3.8377     1.9201    -2.5042 H       
  32 H32           -1.6089     6.4831    -1.5931 H       
  33 H33            0.4046     7.3750    -0.4943 H       
  34 H34            2.0040     5.8460     0.5832 H       
  35 H35            1.5905     3.4201     0.5708 H       
  36 H36            5.6180     3.5089    -3.0990 H       
  37 H37            8.4729     1.1172    -1.0124 H       
  38 H38            6.7044    -0.4788    -0.4022 H       
@<TRIPOS>BOND
   1    1    2 2
   2    1    4 1
   3    1   11 1
   4    2    3 1
   5    2    6 1
   6    3   24 1
   7    3   25 1
   8    3   26 1
   9    4    5 1
  10    5    6 2
  11    5    7 1
  12    6   10 1
  13    7    8 1
  14    7    9 2
  15    8   14 ar
  16    8   22 ar
  17   10   27 1
  18   10   28 1
  19   11   12 1
  20   11   29 1
  21   12   13 ar
  22   12   18 ar
  23   13   15 ar
  24   13   30 1
  25   14   19 ar
  26   14   31 1
  27   15   16 ar
  28   15   32 1
  29   16   17 ar
  30   16   33 1
  31   17   18 ar
  32   17   34 1
  33   18   35 1
  34   19   20 ar
  35   19   36 1
  36   20   21 ar
  37   20   23 1
  38   21   22 ar
  39   21   37 1
  40   22   38 1

#	End of record

