#	Name: ASD05740256
#	Creating user name:	WinNT
#	Creation time:	15. 06. 2019 21:03

#	Modifying user name:	WinNT
#	Modification time:	15. 06. 2019 21:03

#	Program:	/corina/corina34_cracker 3.40 0067  02.08.2006

@<TRIPOS>MOLECULE
ASD05740256
  58   61    0    0    0
SMALL
NO_CHARGES


@<TRIPOS>ATOM
   1 C1            -0.0174     1.3909    -0.0572 C.ar    
   2 C2             0.0012    -0.0015    -0.0577 C.ar    
   3 N3             1.1110     2.0858    -0.0588 N.ar    
   4 C4             2.2887     1.4956    -0.0608 C.ar    
   5 C5             2.3872     0.1061    -0.0620 C.ar    
   6 C6             1.2146    -0.6594    -0.0599 C.ar    
   7 C7             3.7144    -0.5529    -0.0653 C.ar    
   8 C8             4.8843     0.2063     0.0377 C.ar    
   9 N9             3.8114    -1.8773    -0.1609 N.ar    
  10 C10            4.9963    -2.4677    -0.1640 C.ar    
  11 N11            6.1208    -1.7726    -0.0733 N.ar    
  12 C12            6.0999    -0.4527     0.0302 C.ar    
  13 N13            5.0623    -3.8479    -0.2643 N.pl3   
  14 N14           -1.2332     2.0595    -0.0609 N.pl3   
  15 C15            6.3025    -4.4813    -0.3878 C.ar    
  16 C16            6.5103    -5.7219     0.1985 C.ar    
  17 C17            7.3264    -3.8721    -1.1025 C.ar    
  18 C18            8.5522    -4.4978    -1.2259 C.ar    
  19 C19            8.7642    -5.7302    -0.6391 C.ar    
  20 C20            7.7426    -6.3474     0.0732 C.ar    
  21 C21           -2.4864     1.3007    -0.0653 C.3     
  22 C22           -3.6698     2.2704    -0.0688 C.3     
  23 N23           -4.9264     1.5096    -0.0732 N.3     
  24 N24            7.9576    -7.5935     0.6661 N.3     
  25 C25            9.3256    -8.0676     0.4143 C.3     
  26 C26            9.5455    -9.3943     1.1450 C.3     
  27 N27            8.5568   -10.3767     0.6793 N.3     
  28 C28            7.1888    -9.9027     0.9311 C.3     
  29 C29            6.9688    -8.5760     0.2005 C.3     
  30 C30            8.7829   -11.6874     1.3030 C.3     
  31 H31           -0.9231    -0.5602    -0.0561 H       
  32 H32            3.1870     2.0951    -0.0620 H       
  33 H33            1.2586    -1.7385    -0.0607 H       
  34 H34            4.8395     1.2821     0.1207 H       
  35 H35            7.0227     0.1036     0.1032 H       
  36 H36            4.2480    -4.3747    -0.2489 H       
  37 H37           -1.2535     3.0293    -0.0606 H       
  38 H38            5.7149    -6.1993     0.7514 H       
  39 H39            7.1640    -2.9085    -1.5625 H       
  40 H40            9.3462    -4.0224    -1.7825 H       
  41 H41            9.7234    -6.2166    -0.7374 H       
  42 H42           -2.5282     0.6733    -0.9557 H       
  43 H43           -2.5340     0.6726     0.8242 H       
  44 H44           -3.6281     2.8978     0.8216 H       
  45 H45           -3.6223     2.8985    -0.9584 H       
  46 H46           -5.7236     2.1281    -0.0756 H       
  47 H47           -4.9607     0.8725    -0.8549 H       
  48 H48            9.4685    -8.2140    -0.6563 H       
  49 H49           10.0394    -7.3289     0.7791 H       
  50 H50           10.5501    -9.7623     0.9361 H       
  51 H51            9.4295    -9.2421     2.2180 H       
  52 H52            6.4750   -10.6414     0.5664 H       
  53 H53            7.0459    -9.7563     2.0018 H       
  54 H54            5.9643    -8.2079     0.4094 H       
  55 H55            7.0849    -8.7282    -0.8726 H       
  56 H56            8.6995   -11.5938     2.3857 H       
  57 H57            8.0375   -12.3955     0.9410 H       
  58 H58            9.7796   -12.0454     1.0450 H       
@<TRIPOS>BOND
   1    1    2 ar
   2    1    3 ar
   3    1   14 1
   4    2    6 ar
   5    2   31 1
   6    3    4 ar
   7    4    5 ar
   8    4   32 1
   9    5    6 ar
  10    5    7 1
  11    6   33 1
  12    7    8 ar
  13    7    9 ar
  14    8   12 ar
  15    8   34 1
  16    9   10 ar
  17   10   11 ar
  18   10   13 1
  19   11   12 ar
  20   12   35 1
  21   13   15 1
  22   13   36 1
  23   14   21 1
  24   14   37 1
  25   15   16 ar
  26   15   17 ar
  27   16   20 ar
  28   16   38 1
  29   17   18 ar
  30   17   39 1
  31   18   19 ar
  32   18   40 1
  33   19   20 ar
  34   19   41 1
  35   20   24 1
  36   21   22 1
  37   21   42 1
  38   21   43 1
  39   22   23 1
  40   22   44 1
  41   22   45 1
  42   23   46 1
  43   23   47 1
  44   24   25 1
  45   24   29 1
  46   25   26 1
  47   25   48 1
  48   25   49 1
  49   26   27 1
  50   26   50 1
  51   26   51 1
  52   27   28 1
  53   27   30 1
  54   28   29 1
  55   28   52 1
  56   28   53 1
  57   29   54 1
  58   29   55 1
  59   30   56 1
  60   30   57 1
  61   30   58 1

#	End of record

