#	Name: ASD01908211
#	Creating user name:	WinNT
#	Creation time:	15. 06. 2019 19:54

#	Modifying user name:	WinNT
#	Modification time:	15. 06. 2019 19:54

#	Program:	/corina/corina34_cracker 3.40 0067  02.08.2006

@<TRIPOS>MOLECULE
ASD01908211
  42   44    0    0    0
SMALL
NO_CHARGES


@<TRIPOS>ATOM
   1 O1            -0.0813     1.4334     0.0231 O.3     
   2 C2            -1.1955     1.6311     0.7576 C.2     
   3 C3            -1.0305     2.7819     1.4743 C.2     
   4 C4             0.2387     3.2832     1.1458 C.2     
   5 C5             0.7859     2.4275     0.2545 C.2     
   6 C6            -2.3767     0.7627     0.7822 C.2     
   7 O7            -3.3263     1.0469     1.4885 O.2     
   8 N8            -2.4108    -0.3501     0.0227 N.am    
   9 C9            -3.4941    -1.2290     0.1186 C.ar    
  10 C10           -4.7730    -0.7348     0.3359 C.ar    
  11 C11           -5.8440    -1.6090     0.4304 C.ar    
  12 C12           -5.6360    -2.9760     0.3077 C.ar    
  13 C13           -4.3623    -3.4662     0.0919 C.ar    
  14 C14           -3.2928    -2.5975    -0.0091 C.ar    
  15 O15           -7.0972    -1.1284     0.6435 O.3     
  16 C16           -8.1536    -2.0869     0.7302 C.3     
  17 C17           -9.4602    -1.3743     0.9668 C.2     
  18 C18          -10.7068    -2.1462     1.0936 C.ar    
  19 C19          -11.9214    -1.4886     1.3132 C.ar    
  20 C20          -13.0533    -3.5990     1.3323 C.ar    
  21 C21          -10.6838    -3.5406     0.9893 C.ar    
  22 C22          -13.0851    -2.2188     1.4309 C.ar    
  23 C23          -11.8561    -4.2567     1.1092 C.ar    
  24 C24          -14.3297    -4.3894     1.4626 C.3     
  25 O25           -9.4844    -0.1651     1.0528 O.2     
  26 H26           -1.7393     3.2212     2.1605 H       
  27 H27            0.6926     4.1837     1.5325 H       
  28 H28            1.7619     2.5284    -0.1968 H       
  29 H29           -1.6839    -0.5413    -0.5905 H       
  30 H30           -4.9329     0.3290     0.4315 H       
  31 H31           -6.4708    -3.6572     0.3814 H       
  32 H32           -4.2032    -4.5303    -0.0025 H       
  33 H33           -2.2990    -2.9829    -0.1830 H       
  34 H34           -8.2104    -2.6502    -0.2013 H       
  35 H35           -7.9574    -2.7701     1.5565 H       
  36 H36          -11.9478    -0.4117     1.3908 H       
  37 H37           -9.7504    -4.0552     0.8149 H       
  38 H38          -14.0238    -1.7125     1.6009 H       
  39 H39          -11.8393    -5.3339     1.0338 H       
  40 H40          -14.7839    -4.5108     0.4792 H       
  41 H41          -14.1085    -5.3699     1.8842 H       
  42 H42          -15.0200    -3.8591     2.1187 H       
@<TRIPOS>BOND
   1    1    2 1
   2    1    5 1
   3    2    3 2
   4    2    6 1
   5    3    4 1
   6    3   26 1
   7    4    5 2
   8    4   27 1
   9    5   28 1
  10    6    7 2
  11    6    8 am
  12    8    9 1
  13    8   29 1
  14    9   10 ar
  15    9   14 ar
  16   10   11 ar
  17   10   30 1
  18   11   12 ar
  19   11   15 1
  20   12   13 ar
  21   12   31 1
  22   13   14 ar
  23   13   32 1
  24   14   33 1
  25   15   16 1
  26   16   17 1
  27   16   34 1
  28   16   35 1
  29   17   18 1
  30   17   25 2
  31   18   19 ar
  32   18   21 ar
  33   19   22 ar
  34   19   36 1
  35   20   22 ar
  36   20   23 ar
  37   20   24 1
  38   21   23 ar
  39   21   37 1
  40   22   38 1
  41   23   39 1
  42   24   40 1
  43   24   41 1
  44   24   42 1

#	End of record

