#	Name: ASD01811255
#	Creating user name:	WinNT
#	Creation time:	15. 06. 2019 19:26

#	Modifying user name:	WinNT
#	Modification time:	15. 06. 2019 19:26

#	Program:	/corina/corina34_cracker 3.40 0067  02.08.2006

@<TRIPOS>MOLECULE
ASD01811255
  43   47    0    0    0
SMALL
NO_CHARGES


@<TRIPOS>ATOM
   1 C1            -0.0168     1.3878     0.0097 C.ar    
   2 C2             0.0021    -0.0041     0.0020 C.ar    
   3 C3             1.2158    -0.6855    -0.0128 C.ar    
   4 C4             2.4032     0.0181    -0.0200 C.ar    
   5 C5             2.3865     1.4137    -0.0128 C.ar    
   6 C6             1.1684     2.0950     0.0022 C.ar    
   7 C7             3.6585     2.1700    -0.0204 C.ar    
   8 C8             4.6631     1.8699     0.8788 C.ar    
   9 C9             5.8647     2.5731     0.8829 C.ar    
  10 C10            6.1234     3.5839     0.0169 C.ar    
  11 C11            3.8814     3.2484    -0.9852 C.ar    
  12 N12            3.8838     4.7893    -2.5530 N.pl3   
  13 C13            3.1452     3.8144    -2.0026 C.2     
  14 C14            5.1632     3.9691    -0.9424 C.ar    
  15 N15            5.1151     4.8841    -1.8940 N.2     
  16 C16            3.4600     5.6370    -3.6702 C.3     
  17 F17            1.2316    -2.0364    -0.0198 F       
  18 F18           -1.1961     2.0469     0.0188 F       
  19 N19           -1.2000    -0.7189     0.0097 N.am    
  20 C20           -1.8011    -1.0634    -1.1502 C.2     
  21 C21           -3.0599    -1.8128    -1.1087 C.2     
  22 N22           -3.5910    -2.1417     0.0348 N.2     
  23 C23           -3.0013    -1.8040     1.1974 C.ar    
  24 C24           -3.5907    -2.1684     2.4176 C.ar    
  25 C25           -2.9907    -1.8248     3.5938 C.ar    
  26 C26           -1.7975    -1.1145     3.5994 C.ar    
  27 C27           -1.1983    -0.7441     2.4152 C.ar    
  28 C28           -1.7888    -1.0888     1.2033 C.ar    
  29 O29           -1.3028    -0.7544    -2.2179 O.2     
  30 H30            3.3447    -0.5109    -0.0308 H       
  31 H31            1.1533     3.1749     0.0078 H       
  32 H32            4.5133     1.0739     1.5932 H       
  33 H33            6.6209     2.3028     1.6051 H       
  34 H34            7.0718     4.0985     0.0621 H       
  35 H35            2.1496     3.5241    -2.3041 H       
  36 H36            2.9572     6.5234    -3.2833 H       
  37 H37            4.3329     5.9381    -4.2493 H       
  38 H38            2.7745     5.0802    -4.3091 H       
  39 H39           -3.5495    -2.0933    -2.0295 H       
  40 H40           -4.5190    -2.7203     2.4257 H       
  41 H41           -3.4486    -2.1079     4.5301 H       
  42 H42           -1.3357    -0.8501     4.5392 H       
  43 H43           -0.2705    -0.1915     2.4276 H       
@<TRIPOS>BOND
   1    1    2 ar
   2    1    6 ar
   3    1   18 1
   4    2    3 ar
   5    2   19 1
   6    3    4 ar
   7    3   17 1
   8    4    5 ar
   9    4   30 1
  10    5    6 ar
  11    5    7 1
  12    6   31 1
  13    7    8 ar
  14    7   11 ar
  15    8    9 ar
  16    8   32 1
  17    9   10 ar
  18    9   33 1
  19   10   14 ar
  20   10   34 1
  21   11   14 ar
  22   11   13 2
  23   12   13 1
  24   12   15 1
  25   12   16 1
  26   13   35 1
  27   14   15 2
  28   16   36 1
  29   16   37 1
  30   16   38 1
  31   19   20 am
  32   19   28 1
  33   20   21 1
  34   20   29 2
  35   21   22 2
  36   21   39 1
  37   22   23 1
  38   23   24 ar
  39   23   28 ar
  40   24   25 ar
  41   24   40 1
  42   25   26 ar
  43   25   41 1
  44   26   27 ar
  45   26   42 1
  46   27   28 ar
  47   27   43 1

#	End of record

