#	Name: ASD03331331
#	Creating user name:	WinNT
#	Creation time:	15. 06. 2019 20:39

#	Modifying user name:	WinNT
#	Modification time:	15. 06. 2019 20:39

#	Program:	/corina/corina34_cracker 3.40 0067  02.08.2006

@<TRIPOS>MOLECULE
ASD03331331
  57   59    0    0    0
SMALL
NO_CHARGES


@<TRIPOS>ATOM
   1 C1            -0.8368     1.8556     0.4617 C.2     
   2 C2            -0.5165     0.5381     0.4065 C.2     
   3 C3             0.8830     0.0053     0.5971 C.3     
   4 C4             1.8497     1.1936     0.4761 C.3     
   5 C5             1.3121     2.3577     1.3140 C.3     
   6 N6             0.0840     2.8885     0.7044 N.3     
   7 N7            -2.7106     0.7582     0.0540 N.2     
   8 N8            -1.6560    -0.1612     0.1568 N.am    
   9 C9            -2.2257     1.9685     0.2411 C.2     
  10 C10           -1.7544    -1.4994     0.0302 C.2     
  11 O11           -0.7639    -2.1946     0.1401 O.2     
  12 N12           -2.9515    -2.0666    -0.2184 N.am    
  13 C13           -0.5106     3.9374     1.5436 C.3     
  14 C14           -4.2620    -3.8589    -1.1977 C.2     
  15 C15           -3.0585    -3.5212    -0.3560 C.3     
  16 C16           -3.2104    -4.1546     1.0284 C.3     
  17 C17           -4.5016    -3.6545     1.6792 C.3     
  18 O18           -5.1840    -3.0752    -1.2797 O.2     
  19 N19           -4.3138    -5.0319    -1.8595 N.am    
  20 C20           -5.5304    -5.4125    -2.5815 C.3     
  21 C21           -3.2659    -5.6773     0.8892 C.3     
  22 C22           -2.0155    -3.7655     1.9011 C.3     
  23 C23           -3.0033     3.2311     0.2156 C.ar    
  24 C24           -2.5553     4.3125    -0.5414 C.ar    
  25 C25           -3.2830     5.4866    -0.5619 C.ar    
  26 C26           -4.4575     5.5892     0.1703 C.ar    
  27 C27           -4.9043     4.5166     0.9233 C.ar    
  28 C28           -4.1865     3.3378     0.9439 C.ar    
  29 F29           -5.1667     6.7389     0.1485 F       
  30 F30           -2.8507     6.5359    -1.2949 F       
  31 H31            0.9754    -0.4481     1.5840 H       
  32 H32            1.1061    -0.7333    -0.1728 H       
  33 H33            2.8336     0.9027     0.8441 H       
  34 H34            1.9240     1.4989    -0.5676 H       
  35 H35            1.0929     2.0069     2.3224 H       
  36 H36            2.0629     3.1464     1.3616 H       
  37 H37           -3.7422    -1.5116    -0.3062 H       
  38 H38           -1.0068     3.4801     2.3996 H       
  39 H39            0.2725     4.6097     1.8941 H       
  40 H40           -1.2386     4.5007     0.9598 H       
  41 H41           -2.1594    -3.9078    -0.8359 H       
  42 H42           -5.3529    -3.9318     1.0574 H       
  43 H43           -4.6098    -4.1058     2.6655 H       
  44 H44           -4.4620    -2.5698     1.7784 H       
  45 H45           -3.5456    -5.6241    -1.8577 H       
  46 H46           -6.3654    -5.4671    -1.8830 H       
  47 H47           -5.7459    -4.6680    -3.3480 H       
  48 H48           -5.3850    -6.3855    -3.0508 H       
  49 H49           -2.4021    -6.0219     0.3208 H       
  50 H50           -3.2548    -6.1332     1.8792 H       
  51 H51           -4.1804    -5.9614     0.3685 H       
  52 H52           -1.9759    -2.6807     2.0003 H       
  53 H53           -2.1236    -4.2168     2.8874 H       
  54 H54           -1.0956    -4.1218     1.4375 H       
  55 H55           -1.6409     4.2328    -1.1106 H       
  56 H56           -5.8186     4.6009     1.4919 H       
  57 H57           -4.5390     2.5005     1.5280 H       
@<TRIPOS>BOND
   1    1    2 2
   2    1    6 1
   3    1    9 1
   4    2    3 1
   5    2    8 1
   6    3    4 1
   7    3   31 1
   8    3   32 1
   9    4    5 1
  10    4   33 1
  11    4   34 1
  12    5    6 1
  13    5   35 1
  14    5   36 1
  15    6   13 1
  16    7    8 1
  17    7    9 2
  18    8   10 am
  19    9   23 1
  20   10   11 2
  21   10   12 am
  22   12   15 1
  23   12   37 1
  24   13   38 1
  25   13   39 1
  26   13   40 1
  27   14   18 2
  28   14   19 am
  29   14   15 1
  30   15   16 1
  31   15   41 1
  32   16   17 1
  33   16   21 1
  34   16   22 1
  35   17   42 1
  36   17   43 1
  37   17   44 1
  38   19   20 1
  39   19   45 1
  40   20   46 1
  41   20   47 1
  42   20   48 1
  43   21   49 1
  44   21   50 1
  45   21   51 1
  46   22   52 1
  47   22   53 1
  48   22   54 1
  49   23   24 ar
  50   23   28 ar
  51   24   25 ar
  52   24   55 1
  53   25   26 ar
  54   25   30 1
  55   26   27 ar
  56   26   29 1
  57   27   28 ar
  58   27   56 1
  59   28   57 1

#	End of record

