#	Name: ASD01901302
#	Creating user name:	WinNT
#	Creation time:	15. 06. 2019 19:53

#	Modifying user name:	WinNT
#	Modification time:	15. 06. 2019 19:53

#	Program:	/corina/corina34_cracker 3.40 0067  02.08.2006

@<TRIPOS>MOLECULE
ASD01901302
  41   44    0    0    0
SMALL
NO_CHARGES


@<TRIPOS>ATOM
   1 C1             0.1134     1.1683     0.1279 C.ar    
   2 C2             0.2447    -0.2065    -0.0497 C.ar    
   3 C3             1.4910    -0.7710    -0.2810 C.ar    
   4 C4             2.6215    -0.0149    -0.3427 C.ar    
   5 C5             2.5656     1.3801    -0.1724 C.ar    
   6 C6             1.3145     2.0022     0.0654 C.ar    
   7 N7             1.2441     3.3229     0.2282 N.ar    
   8 N8             3.6755     2.1241    -0.2328 N.ar    
   9 C9             3.5983     3.4319    -0.0702 C.ar    
  10 C10            2.3460     4.0513     0.1661 C.ar    
  11 C11            2.2712     5.5192     0.3465 C.ar    
  12 C12           -1.2031     1.7694     0.3667 C.2     
  13 C13            4.8272     4.2565    -0.1371 C.ar    
  14 C14            1.2157     7.6225    -0.1310 C.ar    
  15 C15            1.2804     6.2551    -0.3035 C.ar    
  16 C16            3.1879     6.1709     1.1717 C.ar    
  17 C17            3.1127     7.5388     1.3361 C.ar    
  18 C18            2.1309     8.2638     0.6846 C.ar    
  19 C19            4.8340     5.4450    -0.8666 C.ar    
  20 C20            5.9802     3.8502     0.5341 C.ar    
  21 C21            7.1217     4.6228     0.4685 C.ar    
  22 C22            7.1237     5.7984    -0.2608 C.ar    
  23 C23            5.9816     6.2090    -0.9247 C.ar    
  24 O24           -1.3036     2.9686     0.5198 O.2     
  25 C25           -2.4309     0.8972     0.4219 C.3     
  26 H26           -0.6301    -0.8383    -0.0066 H       
  27 H27            1.5664    -1.8400    -0.4155 H       
  28 H28            3.5731    -0.4922    -0.5244 H       
  29 H29            0.4490     8.1934    -0.6336 H       
  30 H30            0.5656     5.7557    -0.9406 H       
  31 H31            3.9545     5.6060     1.6811 H       
  32 H32            3.8216     8.0445     1.9750 H       
  33 H33            2.0766     9.3344     0.8159 H       
  34 H34            3.9430     5.7666    -1.3853 H       
  35 H35            5.9796     2.9330     1.1043 H       
  36 H36            8.0152     4.3092     0.9878 H       
  37 H37            8.0193     6.4001    -0.3086 H       
  38 H38            5.9880     7.1296    -1.4894 H       
  39 H39           -2.1452    -0.1427     0.2637 H       
  40 H40           -2.9054     0.9993     1.3978 H       
  41 H41           -3.1299     1.2043    -0.3559 H       
@<TRIPOS>BOND
   1    1    2 ar
   2    1    6 ar
   3    1   12 1
   4    2    3 ar
   5    2   26 1
   6    3    4 ar
   7    3   27 1
   8    4    5 ar
   9    4   28 1
  10    5    6 ar
  11    5    8 ar
  12    6    7 ar
  13    7   10 ar
  14    8    9 ar
  15    9   10 ar
  16    9   13 1
  17   10   11 1
  18   11   16 ar
  19   11   15 ar
  20   12   24 2
  21   12   25 1
  22   13   20 ar
  23   13   19 ar
  24   14   15 ar
  25   14   18 ar
  26   14   29 1
  27   15   30 1
  28   16   17 ar
  29   16   31 1
  30   17   18 ar
  31   17   32 1
  32   18   33 1
  33   19   23 ar
  34   19   34 1
  35   20   21 ar
  36   20   35 1
  37   21   22 ar
  38   21   36 1
  39   22   23 ar
  40   22   37 1
  41   23   38 1
  42   25   39 1
  43   25   40 1
  44   25   41 1

#	End of record

