#	Name: ASD01008010
#	Creating user name:	WinNT
#	Creation time:	15. 06. 2019 18:56

#	Modifying user name:	WinNT
#	Modification time:	15. 06. 2019 18:56

#	Program:	/corina/corina34_cracker 3.40 0067  02.08.2006

@<TRIPOS>MOLECULE
ASD01008010
  37   39    0    0    0
SMALL
NO_CHARGES


@<TRIPOS>ATOM
   1 C1            -0.0167     1.3833     0.0096 C.ar    
   2 C2             0.0021    -0.0041     0.0020 C.ar    
   3 C3             1.2081    -0.6771    -0.0131 C.ar    
   4 C4             2.3962     0.0305    -0.0202 C.ar    
   5 C5             2.3801     1.4128    -0.0126 C.ar    
   6 C6             1.1763     2.0908     0.0021 C.ar    
   7 O7            -1.2021     2.0479     0.0189 O.3     
   8 N8             2.3055    -2.6820    -0.8927 N.am    
   9 N9             3.2018    -3.4215    -0.1238 N.2     
  10 C10            2.8901    -3.4936     1.1239 C.2     
  11 C11            1.6091    -2.7289     1.3697 C.3     
  12 C12            1.2293    -2.1840    -0.0214 C.3     
  13 C13            3.6636    -4.2114     2.1540 C.ar    
  14 C14            4.8383    -4.8858     1.8077 C.ar    
  15 C15            5.5567    -5.5555     2.7778 C.ar    
  16 C16            5.1164    -5.5599     4.0895 C.ar    
  17 C17            3.9544    -4.8949     4.4387 C.ar    
  18 C18            3.2293    -4.2161     3.4814 C.ar    
  19 Cl19           5.3917    -4.8815     0.1623 Cl      
  20 C20            2.4102    -2.4551    -2.2171 C.2     
  21 O21            1.5684    -1.7936    -2.7876 O.2     
  22 C22            3.5730    -3.0231    -2.9893 C.3     
  23 H23           -0.9255    -0.5572     0.0083 H       
  24 H24            3.3382    -0.4976    -0.0313 H       
  25 H25            3.3093     1.9633    -0.0182 H       
  26 H26            1.1643     3.1708     0.0076 H       
  27 H27           -1.5410     2.2354     0.9049 H       
  28 H28            0.8321    -3.3950     1.7447 H       
  29 H29            1.7810    -1.9093     2.0675 H       
  30 H30            0.2647    -2.5804    -0.3384 H       
  31 H31            6.4642    -6.0774     2.5123 H       
  32 H32            5.6823    -6.0855     4.8444 H       
  33 H33            3.6168    -4.9031     5.4646 H       
  34 H34            2.3251    -3.6935     3.7568 H       
  35 H35            3.5669    -4.1100    -2.9081 H       
  36 H36            3.4877    -2.7366    -4.0375 H       
  37 H37            4.5054    -2.6334    -2.5809 H       
@<TRIPOS>BOND
   1    1    2 ar
   2    1    6 ar
   3    1    7 1
   4    2    3 ar
   5    2   23 1
   6    3    4 ar
   7    3   12 1
   8    4    5 ar
   9    4   24 1
  10    5    6 ar
  11    5   25 1
  12    6   26 1
  13    7   27 1
  14    8    9 1
  15    8   12 1
  16    8   20 am
  17    9   10 2
  18   10   11 1
  19   10   13 1
  20   11   12 1
  21   11   28 1
  22   11   29 1
  23   12   30 1
  24   13   14 ar
  25   13   18 ar
  26   14   15 ar
  27   14   19 1
  28   15   16 ar
  29   15   31 1
  30   16   17 ar
  31   16   32 1
  32   17   18 ar
  33   17   33 1
  34   18   34 1
  35   20   21 2
  36   20   22 1
  37   22   35 1
  38   22   36 1
  39   22   37 1

#	End of record

