#	Name: ASD00310299
#	Creating user name:	WinNT
#	Creation time:	15. 06. 2019 18:34

#	Modifying user name:	WinNT
#	Modification time:	15. 06. 2019 18:34

#	Program:	/corina/corina34_cracker 3.40 0067  02.08.2006

@<TRIPOS>MOLECULE
ASD00310299
  24   25    0    0    0
SMALL
NO_CHARGES


@<TRIPOS>ATOM
   1 C1             0.0021    -0.0041     0.0020 C.1     
   2 C2            -0.0173     1.4278     0.0099 C.ar    
   3 C3             1.1813     2.1462     0.0023 C.ar    
   4 C4             1.1545     3.5265     0.0095 C.ar    
   5 C5            -0.0551     4.1976     0.0246 C.ar    
   6 C6            -1.2454     3.4921     0.0327 C.ar    
   7 C7            -1.2340     2.1127     0.0193 C.ar    
   8 N8             0.0175    -1.1399    -0.0042 N.1     
   9 C9            -2.5578     4.2327     0.0501 C.3     
  10 C10           -2.4874     5.5941     0.7617 C.3     
  11 C11           -3.3984     6.1353    -0.3528 C.3     
  12 C12           -2.8424     5.0124    -1.2444 C.3     
  13 O13           -3.6493     3.4173     0.4810 O.3     
  14 Br14           2.8356     1.2303    -0.0171 Br      
  15 H15            2.0797     4.0835     0.0036 H       
  16 H16           -0.0704     5.2775     0.0306 H       
  17 H17           -2.1641     1.5638     0.0211 H       
  18 H18           -2.9541     5.5966     1.7468 H       
  19 H19           -1.4905     6.0349     0.7634 H       
  20 H20           -4.4617     6.0340    -0.1353 H       
  21 H21           -3.1278     7.1356    -0.6907 H       
  22 H22           -1.9425     5.2942    -1.7912 H       
  23 H23           -3.5956     4.5453    -1.8789 H       
  24 H24           -3.7126     2.5693     0.0205 H       
@<TRIPOS>BOND
   1    1    2 1
   2    1    8 3
   3    2    3 ar
   4    2    7 ar
   5    3    4 ar
   6    3   14 1
   7    4    5 ar
   8    4   15 1
   9    5    6 ar
  10    5   16 1
  11    6    7 ar
  12    6    9 1
  13    7   17 1
  14    9   10 1
  15    9   12 1
  16    9   13 1
  17   10   11 1
  18   10   18 1
  19   10   19 1
  20   11   12 1
  21   11   20 1
  22   11   21 1
  23   12   22 1
  24   12   23 1
  25   13   24 1

#	End of record

