#	Name: ASD03910138
#	Creating user name:	WinNT
#	Creation time:	15. 06. 2019 20:47

#	Modifying user name:	WinNT
#	Modification time:	15. 06. 2019 20:47

#	Program:	/corina/corina34_cracker 3.40 0067  02.08.2006

@<TRIPOS>MOLECULE
ASD03910138
  40   41    0    0    0
SMALL
NO_CHARGES


@<TRIPOS>ATOM
   1 C1            -0.0169     1.3960     0.0097 C.ar    
   2 C2             0.0021    -0.0041     0.0020 C.ar    
   3 C3             1.2054    -0.6736    -0.0131 C.ar    
   4 C4             2.4004     0.0393    -0.0206 C.ar    
   5 C5             5.9971    -0.7485    -0.0592 C.3     
   6 C6             4.7725     0.1684    -0.0426 C.3     
   7 C7             7.2699     0.1005    -0.0668 C.3     
   8 O8             8.3325    -2.0024    -0.0883 O.2     
   9 O9             9.7101    -0.2744    -0.0921 O.3     
  10 C10            8.4761    -0.8027    -0.0832 C.2     
  11 O11            3.5837    -0.6245    -0.0355 O.3     
  12 C12            2.3861     1.4298    -0.0135 C.ar    
  13 C13            1.1890     2.1081     0.0020 C.ar    
  14 Cl14           1.2315    -2.4093    -0.0221 Cl      
  15 C15           -1.2972     2.1154     0.0197 C.2     
  16 O16           -2.3405     1.4968     0.0213 O.2     
  17 C17           -1.3148     3.6223     0.0280 C.3     
  18 C18           -2.7631     4.1154     0.0375 C.3     
  19 C19           -2.7807     5.6223     0.0458 C.2     
  20 N20           -3.4235     6.4069    -0.8458 N.pl3   
  21 C21           -3.1892     7.7062    -0.4846 C.2     
  22 C22           -2.4118     7.6710     0.6145 C.2     
  23 N23           -2.1819     6.3851     0.9190 N.2     
  24 H24           -0.9251    -0.5578     0.0083 H       
  25 H25            5.9885    -1.3824     0.8275 H       
  26 H26            5.9715    -1.3728    -0.9524 H       
  27 H27            4.7981     0.7927     0.8505 H       
  28 H28            4.7811     0.8023    -0.9293 H       
  29 H29            7.2785     0.7344    -0.9535 H       
  30 H30            7.2955     0.7248     0.8263 H       
  31 H31           10.4527    -0.8937    -0.1025 H       
  32 H32            3.3163     1.9784    -0.0194 H       
  33 H33            1.1794     3.1880     0.0076 H       
  34 H34           -0.8010     3.9868     0.9175 H       
  35 H35           -0.8094     3.9965    -0.8624 H       
  36 H36           -3.2769     3.7510    -0.8520 H       
  37 H37           -3.2684     3.7413     0.9279 H       
  38 H38           -3.9522     6.1058    -1.6013 H       
  39 H39           -3.5566     8.5898    -0.9852 H       
  40 H40           -2.0413     8.5279     1.1575 H       
@<TRIPOS>BOND
   1    1    2 ar
   2    1   13 ar
   3    1   15 1
   4    2    3 ar
   5    2   24 1
   6    3    4 ar
   7    3   14 1
   8    4   11 1
   9    4   12 ar
  10    5    6 1
  11    5    7 1
  12    5   25 1
  13    5   26 1
  14    6   11 1
  15    6   27 1
  16    6   28 1
  17    7   10 1
  18    7   29 1
  19    7   30 1
  20    8   10 2
  21    9   10 1
  22    9   31 1
  23   12   13 ar
  24   12   32 1
  25   13   33 1
  26   15   16 2
  27   15   17 1
  28   17   18 1
  29   17   34 1
  30   17   35 1
  31   18   19 1
  32   18   36 1
  33   18   37 1
  34   19   20 1
  35   19   23 2
  36   20   21 1
  37   20   38 1
  38   21   22 2
  39   21   39 1
  40   22   23 1
  41   22   40 1

#	End of record

