#	Name: ASD04591031
#	Creating user name:	WinNT
#	Creation time:	15. 06. 2019 20:51

#	Modifying user name:	WinNT
#	Modification time:	15. 06. 2019 20:51

#	Program:	/corina/corina34_cracker 3.40 0067  02.08.2006

@<TRIPOS>MOLECULE
ASD04591031
  76   81    0    0    0
SMALL
NO_CHARGES


@<TRIPOS>ATOM
   1 N1            -2.3782    -2.7058     0.0195 N.ar    
   2 C2            -1.2116    -2.0737     0.0036 C.ar    
   3 N3            -0.0572    -2.7201    -0.0183 N.ar    
   4 C4            -0.0258    -4.0494    -0.0249 C.ar    
   5 C5            -1.2485    -4.7504    -0.0081 C.ar    
   6 C6            -2.4369    -4.0273     0.0144 C.ar    
   7 N7             0.9981    -4.9637    -0.0460 N.pl3   
   8 C8             0.4951    -6.2533    -0.0436 C.ar    
   9 C9            -0.9091    -6.1790    -0.0202 C.ar    
  10 C10            1.0916    -7.5074    -0.0596 C.ar    
  11 N11            0.3554    -8.5999    -0.0533 N.ar    
  12 C12           -0.9653    -8.5647    -0.0314 C.ar    
  13 C13           -1.6434    -7.3643    -0.0131 C.ar    
  14 C14            2.4227    -4.6225    -0.0683 C.3     
  15 N15           -1.2019    -0.6887     0.0098 N.pl3   
  16 C16           -2.4016     0.0177    -0.0802 C.ar    
  17 N17           -3.5391    -0.6295    -0.2720 N.ar    
  18 N18           -4.6655    -0.0208    -0.3610 N.ar    
  19 C19           -4.7646     1.2952    -0.2669 C.ar    
  20 C20           -3.6184     2.0654    -0.0641 C.ar    
  21 C21           -2.4049     1.4084     0.0375 C.ar    
  22 C22            2.7460    -3.7909    -1.3219 C.3     
  23 C23            3.2825    -2.4331    -0.8238 C.3     
  24 C24            3.8152    -2.7341     0.5992 C.3     
  25 C25            2.7741    -3.7410     1.1480 C.3     
  26 N26           -6.0101     1.9108    -0.3704 N.3     
  27 C27           -6.0397     2.8566    -1.5010 C.3     
  28 C28           -7.2011     2.4304    -2.4235 C.3     
  29 C29           -8.1185     1.6137    -1.4757 C.3     
  30 C30           -7.0810     0.9103    -0.5655 C.3     
  31 O31           -8.8890     0.6580    -2.2072 O.3     
  32 Si32         -10.3445     1.2111    -2.6927 Si      
  33 C33          -11.2374    -0.1294    -3.6289 C.3     
  34 C34          -11.3498     1.7038    -1.2036 C.3     
  35 C35          -10.1087     2.6905    -3.8001 C.3     
  36 C36          -11.4310    -1.3444    -2.7195 C.3     
  37 C37          -12.6028     0.3894    -4.0844 C.3     
  38 C38          -10.4118    -0.5341    -4.8518 C.3     
  39 H39           -3.3897    -4.5355     0.0273 H       
  40 H40            2.1685    -7.5878    -0.0777 H       
  41 H41           -1.5221    -9.4901    -0.0272 H       
  42 H42           -2.7231    -7.3426     0.0047 H       
  43 H43            3.0242    -5.5315    -0.0578 H       
  44 H44           -0.3610    -0.2099     0.0768 H       
  45 H45           -3.6773     3.1409     0.0151 H       
  46 H46           -1.4872     1.9557     0.1945 H       
  47 H47            3.5050    -4.2958    -1.9194 H       
  48 H48            1.8429    -3.6412    -1.9137 H       
  49 H49            4.0896    -2.0826    -1.4670 H       
  50 H50            2.4793    -1.6974    -0.7827 H       
  51 H51            4.8049    -3.1884     0.5530 H       
  52 H52            3.8327    -1.8280     1.2048 H       
  53 H53            1.8888    -3.2165     1.5075 H       
  54 H54            3.2102    -4.3451     1.9436 H       
  55 H55           -6.2103     3.8686    -1.1336 H       
  56 H56           -5.0972     2.8119    -2.0467 H       
  57 H57           -7.7264     3.3036    -2.8104 H       
  58 H58           -6.8362     1.8061    -3.2391 H       
  59 H59           -8.7648     2.2718    -0.8951 H       
  60 H60           -6.6852     0.0218    -1.0574 H       
  61 H61           -7.5325     0.6463     0.3909 H       
  62 H62          -10.8273     2.4881    -0.6559 H       
  63 H63          -12.3225     2.0735    -1.5281 H       
  64 H64          -11.4877     0.8382    -0.5557 H       
  65 H65           -9.5206     2.4022    -4.6713 H       
  66 H66          -11.0815     3.0602    -4.1246 H       
  67 H67           -9.5863     3.4748    -3.2524 H       
  68 H68          -12.0192    -1.0561    -1.8482 H       
  69 H69          -11.9535    -2.1287    -3.2672 H       
  70 H70          -10.4583    -1.7141    -2.3950 H       
  71 H71          -12.4649     1.2550    -4.7323 H       
  72 H72          -13.1253    -0.3948    -4.6321 H       
  73 H73          -13.1910     0.6778    -3.2131 H       
  74 H74           -9.4391    -0.9038    -4.5274 H       
  75 H75          -10.9343    -1.3184    -5.3996 H       
  76 H76          -10.2739     0.3315    -5.4997 H       
@<TRIPOS>BOND
   1    1    2 ar
   2    1    6 ar
   3    2    3 ar
   4    2   15 1
   5    3    4 ar
   6    4    5 ar
   7    4    7 1
   8    5    6 ar
   9    5    9 1
  10    6   39 1
  11    7    8 1
  12    7   14 1
  13    8    9 ar
  14    8   10 ar
  15    9   13 ar
  16   10   11 ar
  17   10   40 1
  18   11   12 ar
  19   12   13 ar
  20   12   41 1
  21   13   42 1
  22   14   22 1
  23   14   25 1
  24   14   43 1
  25   15   16 1
  26   15   44 1
  27   16   17 ar
  28   16   21 ar
  29   17   18 ar
  30   18   19 ar
  31   19   20 ar
  32   19   26 1
  33   20   21 ar
  34   20   45 1
  35   21   46 1
  36   22   23 1
  37   22   47 1
  38   22   48 1
  39   23   24 1
  40   23   49 1
  41   23   50 1
  42   24   25 1
  43   24   51 1
  44   24   52 1
  45   25   53 1
  46   25   54 1
  47   26   27 1
  48   26   30 1
  49   27   28 1
  50   27   55 1
  51   27   56 1
  52   28   29 1
  53   28   57 1
  54   28   58 1
  55   29   30 1
  56   29   31 1
  57   29   59 1
  58   30   60 1
  59   30   61 1
  60   31   32 1
  61   32   33 1
  62   32   34 1
  63   32   35 1
  64   33   36 1
  65   33   37 1
  66   33   38 1
  67   34   62 1
  68   34   63 1
  69   34   64 1
  70   35   65 1
  71   35   66 1
  72   35   67 1
  73   36   68 1
  74   36   69 1
  75   36   70 1
  76   37   71 1
  77   37   72 1
  78   37   73 1
  79   38   74 1
  80   38   75 1
  81   38   76 1

#	End of record

