#	Name: ASD05143065
#	Creating user name:	WinNT
#	Creation time:	15. 06. 2019 20:57

#	Modifying user name:	WinNT
#	Modification time:	15. 06. 2019 20:57

#	Program:	/corina/corina34_cracker 3.40 0067  02.08.2006

@<TRIPOS>MOLECULE
ASD05143065
 148  152    0    0    0
SMALL
NO_CHARGES


@<TRIPOS>ATOM
   1 C1            -1.2251     4.1642     0.6889 C.2     
   2 C2            -1.4718     2.8016     1.2835 C.3     
   3 N3             0.0357     4.5799     0.4566 N.am    
   4 O4            -2.1614     4.8848     0.4149 O.2     
   5 C5             0.2756     5.9045    -0.1214 C.3     
   6 C6            -0.3025     6.9770     0.8040 C.3     
   7 C7            -0.3911     5.9923    -1.4701 C.2     
   8 C8             0.4593     6.9704     2.1308 C.3     
   9 C9            -0.1188     8.0429     3.0562 C.3     
  10 N10            0.6107     8.0365     4.3267 N.pl3   
  11 C11            0.2662     8.9206     5.3216 C.2     
  12 N12            0.9509     8.9146     6.5139 N.pl3   
  13 N13           -0.7094     9.7644     5.1345 N.2     
  14 O14           -1.2847     5.2237    -1.7560 O.2     
  15 N15            0.0057     6.9249    -2.3585 N.am    
  16 C16           -0.6424     7.0102    -3.6696 C.3     
  17 C17           -0.4986     8.4312    -4.2181 C.3     
  18 C18           -0.9680     9.4349    -3.1631 C.3     
  19 C19           -0.0070    10.6248    -3.1280 C.3     
  20 N20            1.3773    10.1347    -3.0876 N.3     
  21 C21            2.3166    11.2307    -2.8149 C.3     
  22 C22            3.6678    10.9157    -3.4599 C.3     
  23 C23            4.7599    11.7541    -2.7926 C.3     
  24 C24            5.9173    11.9558    -3.7728 C.3     
  25 N25            6.9265    10.9028    -3.5435 N.am    
  26 C26            6.5399    13.3095    -3.5469 C.2     
  27 N27            5.9593    14.4123    -4.0598 N.am    
  28 O28            7.5635    13.4064    -2.9036 O.2     
  29 C29            7.1405    10.0303    -4.5667 C.2     
  30 O30            6.5153    10.1292    -5.6013 O.2     
  31 C31            8.1665     8.9401    -4.3940 C.3     
  32 N32            7.9575     7.9192    -5.4458 N.am    
  33 C33            9.5712     9.5321    -4.5256 C.3     
  34 C34            7.5780     6.6863    -4.9954 C.2     
  35 O35            7.4252     6.4823    -3.8097 O.2     
  36 C36            7.3524     5.5848    -5.9985 C.3     
  37 N37            6.5770     4.5051    -5.3553 N.am    
  38 C38            6.5724     6.1331    -7.1951 C.3     
  39 C39            5.3673     4.2131    -5.9065 C.2     
  40 O40            4.9711     4.8232    -6.8769 O.2     
  41 C41            4.5267     3.1216    -5.2959 C.3     
  42 C42           10.5951     8.4662    -4.2314 C.2     
  43 C43           11.1302     7.4863    -5.1798 C.ar    
  44 C44           12.0494     6.7060    -4.4554 C.ar    
  45 N45           12.0620     7.1864    -3.1651 N.pl3   
  46 C46           11.1942     8.2382    -3.0519 C.2     
  47 C47           10.9074     7.2237    -6.5330 C.ar    
  48 C48           11.5846     6.2084    -7.1472 C.ar    
  49 C49           12.4925     5.4351    -6.4366 C.ar    
  50 C50           12.7281     5.6775    -5.1012 C.ar    
  51 N51            3.1325     3.2776    -5.7705 N.am    
  52 C52            4.5659     3.2356    -3.7707 C.3     
  53 C53            5.9534     2.9135    -3.2783 C.ar    
  54 C54            6.6937     3.8770    -2.6150 C.ar    
  55 C55            7.9686     3.5796    -2.1632 C.ar    
  56 C56            8.5001     2.3219    -2.3749 C.ar    
  57 C57            7.7597     1.3604    -3.0376 C.ar    
  58 C58            6.4850     1.6543    -3.4840 C.ar    
  59 C59            0.0110     6.0373    -4.6173 C.2     
  60 O60            0.4215     6.4106    -5.6957 O.2     
  61 C61            6.5775     5.1001    -8.3238 C.3     
  62 C62            5.6718     5.5810    -9.4593 C.3     
  63 N63            5.6767     4.5919   -10.5400 N.pl3   
  64 C64            4.9300     4.8090   -11.6739 C.2     
  65 N65            4.1787     5.9542   -11.7935 N.pl3   
  66 N66            4.9343     3.9290   -12.6354 N.2     
  67 N67            0.1343     4.7335    -4.2450 N.am    
  68 C68            0.7861     3.8291    -5.2133 C.3     
  69 C69            2.2284     3.6486    -4.8160 C.2     
  70 O70            2.5802     3.8291    -3.6694 O.2     
  71 C71            0.7128     4.4394    -6.6144 C.3     
  72 C72           -0.7250     4.7260    -6.9629 C.2     
  73 C73           -1.2234     5.9157    -7.3501 C.2     
  74 N74           -2.5627     5.7327    -7.5657 N.pl3   
  75 C75           -2.8363     4.4368    -7.3024 C.2     
  76 N76           -1.7316     3.8397    -6.9473 N.2     
  77 F77            6.1732     5.1065    -2.4089 F       
  78 H78           -0.5183     2.3026     1.4563 H       
  79 H79           -2.0026     2.9087     2.2295 H       
  80 H80           -2.0730     2.2081     0.5947 H       
  81 H81            0.7844     4.0019     0.6720 H       
  82 H82            1.3480     6.0625    -0.2353 H       
  83 H83           -0.2035     7.9550     0.3331 H       
  84 H84           -1.3562     6.7678     0.9890 H       
  85 H85            0.3603     5.9923     2.6017 H       
  86 H86            1.5129     7.1796     1.9458 H       
  87 H87           -0.0198     9.0209     2.5853 H       
  88 H88           -1.1724     7.8337     3.2412 H       
  89 H89            1.3368     7.4085     4.4659 H       
  90 H90            1.6769     8.2867     6.6531 H       
  91 H91            0.7078     9.5384     7.2158 H       
  92 H92           -0.9524    10.3882     5.8365 H       
  93 H93            0.7203     7.5396    -2.1298 H       
  94 H94           -1.6996     6.7649    -3.5690 H       
  95 H95            0.5464     8.6225    -4.4619 H       
  96 H96           -1.1066     8.5372    -5.1164 H       
  97 H97           -1.9696     9.7840    -3.4141 H       
  98 H98           -0.9856     8.9530    -2.1856 H       
  99 H99           -0.1508    11.2344    -4.0201 H       
 100 H100          -0.2056    11.2262    -2.2409 H       
 101 H101           1.4791     9.3942    -2.4099 H       
 102 H102           1.9231    12.1584    -3.2302 H       
 103 H103           2.4447    11.3401    -1.7380 H       
 104 H104           3.8934     9.8570    -3.3320 H       
 105 H105           3.6268    11.1524    -4.5231 H       
 106 H106           4.3510    12.7237    -2.5085 H       
 107 H107           5.1222    11.2377    -1.9037 H       
 108 H108           5.5457    11.8889    -4.7953 H       
 109 H109           7.4125    10.8362    -2.7067 H       
 110 H110           5.1407    14.3348    -4.5743 H       
 111 H111           6.3601    15.2836    -3.9144 H       
 112 H112           8.0512     8.4819    -3.4118 H       
 113 H113           8.0809     8.1122    -6.3883 H       
 114 H114           9.7152     9.9040    -5.5400 H       
 115 H115           9.6874    10.3528    -3.8178 H       
 116 H116           8.3130     5.1943    -6.3343 H       
 117 H117           6.9127     4.0284    -4.5801 H       
 118 H118           5.5448     6.3389    -6.8956 H       
 119 H119           7.0408     7.0537    -7.5431 H       
 120 H120           4.9110     2.1488    -5.6027 H       
 121 H121          12.6077     6.8342    -2.4447 H       
 122 H122          11.0123     8.7972    -2.1459 H       
 123 H123          10.2021     7.8207    -7.0920 H       
 124 H124          11.4119     6.0056    -8.1939 H       
 125 H125          13.0199     4.6358    -6.9359 H       
 126 H126          13.4366     5.0705    -4.5571 H       
 127 H127           2.8790     3.1271    -6.6946 H       
 128 H128           4.3022     4.2511    -3.4753 H       
 129 H129           3.8540     2.5342    -3.3355 H       
 130 H130           8.5472     4.3305    -1.6458 H       
 131 H131           9.4945     2.0898    -2.0230 H       
 132 H132           8.1762     0.3777    -3.2030 H       
 133 H133           5.9075     0.9025    -4.0015 H       
 134 H134           7.5937     4.9754    -8.6976 H       
 135 H135           6.2100     4.1463    -7.9451 H       
 136 H136           4.6555     5.7057    -9.0855 H       
 137 H137           6.0392     6.5348    -9.8380 H       
 138 H138           6.2067     3.7839   -10.4556 H       
 139 H139           4.1755     6.6091   -11.0779 H       
 140 H140           3.6519     6.1073   -12.5934 H       
 141 H141           4.4075     4.0821   -13.4353 H       
 142 H142          -0.1896     4.4150    -3.3880 H       
 143 H143           0.2819     2.8627    -5.2070 H       
 144 H144           1.2841     5.3674    -6.6368 H       
 145 H145           1.1293     3.7388    -7.3381 H       
 146 H146          -0.6724     6.8370    -7.4677 H       
 147 H147          -3.1969     6.4079    -7.8537 H       
 148 H148          -3.8077     3.9707    -7.3773 H       
@<TRIPOS>BOND
   1    1    2 1
   2    1    3 am
   3    1    4 2
   4    2   78 1
   5    2   79 1
   6    2   80 1
   7    3    5 1
   8    3   81 1
   9    5    6 1
  10    5    7 1
  11    5   82 1
  12    6    8 1
  13    6   83 1
  14    6   84 1
  15    7   14 2
  16    7   15 am
  17    8    9 1
  18    8   85 1
  19    8   86 1
  20    9   10 1
  21    9   87 1
  22    9   88 1
  23   10   11 1
  24   10   89 1
  25   11   12 1
  26   11   13 2
  27   12   90 1
  28   12   91 1
  29   13   92 1
  30   15   16 1
  31   15   93 1
  32   16   17 1
  33   16   59 1
  34   16   94 1
  35   17   18 1
  36   17   95 1
  37   17   96 1
  38   18   19 1
  39   18   97 1
  40   18   98 1
  41   19   20 1
  42   19   99 1
  43   19  100 1
  44   20   21 1
  45   20  101 1
  46   21   22 1
  47   21  102 1
  48   21  103 1
  49   22   23 1
  50   22  104 1
  51   22  105 1
  52   23   24 1
  53   23  106 1
  54   23  107 1
  55   24   25 1
  56   24   26 1
  57   24  108 1
  58   25   29 am
  59   25  109 1
  60   26   27 am
  61   26   28 2
  62   27  110 1
  63   27  111 1
  64   29   30 2
  65   29   31 1
  66   31   32 1
  67   31   33 1
  68   31  112 1
  69   32   34 am
  70   32  113 1
  71   33   42 1
  72   33  114 1
  73   33  115 1
  74   34   35 2
  75   34   36 1
  76   36   37 1
  77   36   38 1
  78   36  116 1
  79   37   39 am
  80   37  117 1
  81   38   61 1
  82   38  118 1
  83   38  119 1
  84   39   40 2
  85   39   41 1
  86   41   51 1
  87   41   52 1
  88   41  120 1
  89   42   43 1
  90   42   46 2
  91   43   44 ar
  92   43   47 ar
  93   44   45 1
  94   44   50 ar
  95   45   46 1
  96   45  121 1
  97   46  122 1
  98   47   48 ar
  99   47  123 1
 100   48   49 ar
 101   48  124 1
 102   49   50 ar
 103   49  125 1
 104   50  126 1
 105   51   69 am
 106   51  127 1
 107   52   53 1
 108   52  128 1
 109   52  129 1
 110   53   54 ar
 111   53   58 ar
 112   54   55 ar
 113   54   77 1
 114   55   56 ar
 115   55  130 1
 116   56   57 ar
 117   56  131 1
 118   57   58 ar
 119   57  132 1
 120   58  133 1
 121   59   60 2
 122   59   67 am
 123   61   62 1
 124   61  134 1
 125   61  135 1
 126   62   63 1
 127   62  136 1
 128   62  137 1
 129   63   64 1
 130   63  138 1
 131   64   65 1
 132   64   66 2
 133   65  139 1
 134   65  140 1
 135   66  141 1
 136   67   68 1
 137   67  142 1
 138   68   69 1
 139   68   71 1
 140   68  143 1
 141   69   70 2
 142   71   72 1
 143   71  144 1
 144   71  145 1
 145   72   73 2
 146   72   76 1
 147   73   74 1
 148   73  146 1
 149   74   75 1
 150   74  147 1
 151   75   76 2
 152   75  148 1

#	End of record

