#	Name: ASD03910050
#	Creating user name:	WinNT
#	Creation time:	15. 06. 2019 20:47

#	Modifying user name:	WinNT
#	Modification time:	15. 06. 2019 20:47

#	Program:	/corina/corina34_cracker 3.40 0067  02.08.2006

@<TRIPOS>MOLECULE
ASD03910050
  62   64    0    0    0
SMALL
NO_CHARGES


@<TRIPOS>ATOM
   1 C1             0.5037     1.3613     0.1826 C.ar    
   2 C2             0.6876     0.1711     0.8622 C.ar    
   3 C3            -0.3760    -0.4303     1.5096 C.ar    
   4 C4            -1.6260     0.1562     1.4789 C.ar    
   5 C5            -1.8140     1.3514     0.7973 C.ar    
   6 C6            -0.7425     1.9560     0.1533 C.ar    
   7 N7            -3.0792     1.9481     0.7642 N.am    
   8 C8            -3.1908     3.2912     0.7561 C.2     
   9 O9            -2.2014     3.9827     0.8747 O.2     
  10 C10           -4.3950     5.4333     0.6227 C.ar    
  11 C11           -4.1867     6.1243    -0.5567 C.ar    
  12 C12           -4.0547     7.4993    -0.5389 C.ar    
  13 C13           -4.1312     8.1868     0.6637 C.ar    
  14 C14           -4.3402     7.4911     1.8456 C.ar    
  15 C15           -4.4716     6.1161     1.8225 C.ar    
  16 O16           -4.0012     9.5394     0.6839 O.3     
  17 C17           -4.2058    10.1921     1.9385 C.3     
  18 C18           -5.5760     9.8640     2.4733 C.2     
  19 C19            1.6656     2.0133    -0.5216 C.3     
  20 C20           -0.1711    -1.7273     2.2491 C.3     
  21 O21           -5.7486     9.7471     3.6681 O.2     
  22 N22           -6.6095     9.7005     1.6239 N.am    
  23 C23           -4.5449     3.9339     0.5996 C.3     
  24 C24           -7.9157     9.2751     2.1329 C.3     
  25 C25           -8.9971     9.7390     1.1914 C.2     
  26 O26           -8.7065    10.3612     0.1972 O.2     
  27 O27          -10.2831     9.4611     1.4572 O.3     
  28 C28           -7.9502     7.7490     2.2368 C.3     
  29 C29           -3.1279     9.7510     2.9442 C.3     
  30 C30           -2.3590    11.0244     3.3529 C.3     
  31 C31           -3.3571    12.1760     3.0764 C.3     
  32 C32           -4.0555    11.7183     1.7709 C.3     
  33 H33            1.6640    -0.2899     0.8871 H       
  34 H34           -2.4565    -0.3144     1.9842 H       
  35 H35           -0.8854     2.8857    -0.3774 H       
  36 H36           -3.8760     1.3952     0.7472 H       
  37 H37           -4.1269     5.5886    -1.4926 H       
  38 H38           -3.8917     8.0386    -1.4603 H       
  39 H39           -4.3998     8.0240     2.7831 H       
  40 H40           -4.6343     5.5741     2.7423 H       
  41 H41            1.7210     1.6472    -1.5468 H       
  42 H42            1.5260     3.0943    -0.5288 H       
  43 H43            2.5905     1.7699     0.0015 H       
  44 H44            0.1032    -1.5168     3.2828 H       
  45 H45           -1.0940    -2.3069     2.2289 H       
  46 H46            0.6259    -2.2965     1.7705 H       
  47 H47           -6.4885     9.8644     0.6755 H       
  48 H48           -4.9851     3.6274    -0.3493 H       
  49 H49           -5.1925     3.6209     1.4185 H       
  50 H50           -8.0809     9.7102     3.1185 H       
  51 H51          -10.9410     9.7795     0.8241 H       
  52 H52           -7.1681     7.4134     2.9178 H       
  53 H53           -8.9221     7.4325     2.6155 H       
  54 H54           -7.7851     7.3139     1.2512 H       
  55 H55           -3.5959     9.3004     3.8194 H       
  56 H56           -2.4487     9.0390     2.4752 H       
  57 H57           -2.0995    10.9902     4.4110 H       
  58 H58           -1.4631    11.1413     2.7430 H       
  59 H59           -4.0784    12.2655     3.8887 H       
  60 H60           -2.8285    13.1168     2.9224 H       
  61 H61           -3.4339    11.9471     0.9053 H       
  62 H62           -5.0331    12.1908     1.6754 H       
@<TRIPOS>BOND
   1    1    2 ar
   2    1   19 1
   3    1    6 ar
   4    2    3 ar
   5    2   33 1
   6    3    4 ar
   7    3   20 1
   8    4    5 ar
   9    4   34 1
  10    5    6 ar
  11    5    7 1
  12    6   35 1
  13    7    8 am
  14    7   36 1
  15    8    9 2
  16    8   23 1
  17   10   11 ar
  18   10   15 ar
  19   10   23 1
  20   11   12 ar
  21   11   37 1
  22   12   13 ar
  23   12   38 1
  24   13   14 ar
  25   13   16 1
  26   14   15 ar
  27   14   39 1
  28   15   40 1
  29   16   17 1
  30   17   18 1
  31   17   29 1
  32   17   32 1
  33   18   21 2
  34   18   22 am
  35   19   41 1
  36   19   42 1
  37   19   43 1
  38   20   44 1
  39   20   45 1
  40   20   46 1
  41   22   24 1
  42   22   47 1
  43   23   48 1
  44   23   49 1
  45   24   25 1
  46   24   28 1
  47   24   50 1
  48   25   26 2
  49   25   27 1
  50   27   51 1
  51   28   52 1
  52   28   53 1
  53   28   54 1
  54   29   30 1
  55   29   55 1
  56   29   56 1
  57   30   31 1
  58   30   57 1
  59   30   58 1
  60   31   32 1
  61   31   59 1
  62   31   60 1
  63   32   61 1
  64   32   62 1

#	End of record

