#	Name: ASD01320011
#	Creating user name:	WinNT
#	Creation time:	15. 06. 2019 19:15

#	Modifying user name:	WinNT
#	Modification time:	15. 06. 2019 19:15

#	Program:	/corina/corina34_cracker 3.40 0067  02.08.2006

@<TRIPOS>MOLECULE
ASD01320011
  61   64    0    0    0
SMALL
NO_CHARGES


@<TRIPOS>ATOM
   1 C1             0.4885     1.0174    -0.4382 C.ar    
   2 C2             0.3369    -0.3524    -0.5354 C.ar    
   3 C3             1.4432    -1.1820    -0.4446 C.ar    
   4 C4             2.7106    -0.6341    -0.2555 C.ar    
   5 C5             2.8615     0.7409    -0.1586 C.ar    
   6 C6             1.7501     1.5673    -0.2497 C.ar    
   7 O7             1.2922    -2.5303    -0.5396 O.3     
   8 C8             0.0318    -3.0259    -0.6212 C.ar    
   9 C9            -0.6786    -2.9172    -1.8104 C.ar    
  10 C10           -1.9699    -3.4244    -1.8956 C.ar    
  11 C11           -2.5501    -4.0465    -0.7721 C.ar    
  12 C12           -1.8240    -4.1475     0.4138 C.ar    
  13 C13           -0.5412    -3.6451     0.4836 C.ar    
  14 N14            3.8295    -1.4706    -0.1631 N.am    
  15 C15            4.9309    -1.0528     0.4917 C.2     
  16 C16            6.1555    -1.8806     0.4812 C.ar    
  17 O17            4.9173     0.0049     1.0909 O.2     
  18 C18            7.2978    -1.4509     1.1582 C.ar    
  19 C19            8.4374    -2.2286     1.1448 C.ar    
  20 C20            8.4494    -3.4319     0.4624 C.ar    
  21 C21            7.3203    -3.8636    -0.2113 C.ar    
  22 C22            6.1727    -3.0985    -0.2011 C.ar    
  23 N23            1.9008     2.9558    -0.1525 N.am    
  24 C24            0.8750     3.7165     0.2781 C.2     
  25 O25           -0.1443     3.1906     0.6814 O.2     
  26 C26            0.9891     5.1901     0.2601 C.ar    
  27 C27            2.1578     5.7970    -0.2021 C.ar    
  28 C28            2.2579     7.1730    -0.2162 C.ar    
  29 C29            1.2030     7.9509     0.2265 C.ar    
  30 C30            0.0414     7.3555     0.6861 C.ar    
  31 C31           -0.0739     5.9811     0.7001 C.ar    
  32 C32           -2.7311    -3.3114    -3.1582 C.2     
  33 O33           -3.1955    -4.3057    -3.6784 O.2     
  34 O34           -2.9093    -2.1056    -3.7316 O.3     
  35 C35           -3.9205    -4.5883    -0.8504 C.2     
  36 O36           -4.5883    -4.4094    -1.8493 O.2     
  37 O37           -4.4311    -5.2815     0.1862 O.3     
  38 N38            9.6500    -1.7742     1.8618 N.pl3   
  39 O39            9.6411    -0.7149     2.4628 O.2     
  40 O40           10.6567    -2.4598     1.8509 O.2     
  41 N41           -1.0822     8.1956     1.1580 N.pl3   
  42 O42           -0.9838     9.4095     1.1414 O.2     
  43 O43           -2.1052     7.6730     1.5628 O.2     
  44 H44           -0.3747     1.6621    -0.5134 H       
  45 H45           -0.6452    -0.7772    -0.6820 H       
  46 H46            3.8424     1.1682    -0.0117 H       
  47 H47           -0.2281    -2.4389    -2.6675 H       
  48 H48           -2.2647    -4.6235     1.2773 H       
  49 H49            0.0177    -3.7255     1.4042 H       
  50 H50            3.8119    -2.3508    -0.5703 H       
  51 H51            7.2899    -0.5115     1.6911 H       
  52 H52            9.3440    -4.0369     0.4550 H       
  53 H53            7.3365    -4.8036    -0.7428 H       
  54 H54            5.2921    -3.4366    -0.7270 H       
  55 H55            2.7436     3.3703    -0.3950 H       
  56 H56            2.9822     5.1909    -0.5477 H       
  57 H57            3.1618     7.6439    -0.5734 H       
  58 H58            1.2865     9.0276     0.2137 H       
  59 H59           -0.9811     5.5176     1.0587 H       
  60 H60           -3.4137    -2.0818    -4.5563 H       
  61 H61           -5.3329    -5.6167     0.0885 H       
@<TRIPOS>BOND
   1    1    2 ar
   2    1    6 ar
   3    1   44 1
   4    2    3 ar
   5    2   45 1
   6    3    4 ar
   7    3    7 1
   8    4    5 ar
   9    4   14 1
  10    5    6 ar
  11    5   46 1
  12    6   23 1
  13    7    8 1
  14    8    9 ar
  15    8   13 ar
  16    9   10 ar
  17    9   47 1
  18   10   11 ar
  19   10   32 1
  20   11   12 ar
  21   11   35 1
  22   12   13 ar
  23   12   48 1
  24   13   49 1
  25   14   15 am
  26   14   50 1
  27   15   16 1
  28   15   17 2
  29   16   18 ar
  30   16   22 ar
  31   18   19 ar
  32   18   51 1
  33   19   20 ar
  34   19   38 1
  35   20   21 ar
  36   20   52 1
  37   21   22 ar
  38   21   53 1
  39   22   54 1
  40   23   24 am
  41   23   55 1
  42   24   25 2
  43   24   26 1
  44   26   27 ar
  45   26   31 ar
  46   27   28 ar
  47   27   56 1
  48   28   29 ar
  49   28   57 1
  50   29   30 ar
  51   29   58 1
  52   30   31 ar
  53   30   41 1
  54   31   59 1
  55   32   33 2
  56   32   34 1
  57   34   60 1
  58   35   36 2
  59   35   37 1
  60   37   61 1
  61   38   39 2
  62   38   40 2
  63   41   42 2
  64   41   43 2

#	End of record

