#	Name: ASD00170166
#	Creating user name:	WinNT
#	Creation time:	15. 06. 2019 18:31

#	Modifying user name:	WinNT
#	Modification time:	15. 06. 2019 18:31

#	Program:	/corina/corina34_cracker 3.40 0067  02.08.2006

@<TRIPOS>MOLECULE
ASD00170166
  30   32    0    0    0
SMALL
NO_CHARGES


@<TRIPOS>ATOM
   1 C1            -0.0267     1.3320    -0.1411 C.2     
   2 C2            -0.0037     0.0042    -0.1779 C.2     
   3 C3            -1.3277    -0.5835     0.0173 C.2     
   4 C4            -2.3111     0.3520     0.1965 C.2     
   5 S5            -1.6639     1.9238     0.1398 S.3     
   6 N6            -3.6443     0.0595     0.3999 N.pl3   
   7 C7            -1.5768    -2.0246     0.0202 C.2     
   8 C8            -1.8234    -2.7352    -1.2537 C.ar    
   9 C9             1.3743     1.8951    -0.3493 C.3     
  10 C10            2.3221     0.7096    -0.0769 C.3     
  11 C11            1.4194    -0.4932    -0.4165 C.3     
  12 O12           -1.5812    -2.6396     1.0712 O.2     
  13 C13           -1.9547    -4.1242    -1.2669 C.ar    
  14 C14           -2.1854    -4.7816    -2.4605 C.ar    
  15 C15           -2.2861    -4.0632    -3.6410 C.ar    
  16 C16           -2.1561    -2.6859    -3.6324 C.ar    
  17 C17           -1.9314    -2.0181    -2.4465 C.ar    
  18 F18           -2.3125    -6.1265    -2.4763 F       
  19 H19           -3.9531    -0.8585     0.3461 H       
  20 H20           -4.2726     0.7718     0.5966 H       
  21 H21            1.4929     2.2477    -1.3738 H       
  22 H22            1.5665     2.7039     0.3556 H       
  23 H23            3.1904     0.7445    -0.7349 H       
  24 H24            2.6273     0.6859     0.9692 H       
  25 H25            1.6429    -1.3327     0.2418 H       
  26 H26            1.5500    -0.7828    -1.4592 H       
  27 H27           -1.8758    -4.6842    -0.3468 H       
  28 H28           -2.4665    -4.5806    -4.5717 H       
  29 H29           -2.2353    -2.1317    -4.5560 H       
  30 H30           -1.8302    -0.9429    -2.4421 H       
@<TRIPOS>BOND
   1    1    2 2
   2    1    9 1
   3    1    5 1
   4    2    3 1
   5    2   11 1
   6    3    4 2
   7    3    7 1
   8    4    5 1
   9    4    6 1
  10    6   19 1
  11    6   20 1
  12    7    8 1
  13    7   12 2
  14    8   13 ar
  15    8   17 ar
  16    9   10 1
  17    9   21 1
  18    9   22 1
  19   10   11 1
  20   10   23 1
  21   10   24 1
  22   11   25 1
  23   11   26 1
  24   13   14 ar
  25   13   27 1
  26   14   15 ar
  27   14   18 1
  28   15   16 ar
  29   15   28 1
  30   16   17 ar
  31   16   29 1
  32   17   30 1

#	End of record

