#	Name: ASD01914930
#	Creating user name:	WinNT
#	Creation time:	15. 06. 2019 20:04

#	Modifying user name:	WinNT
#	Modification time:	15. 06. 2019 20:04

#	Program:	/corina/corina34_cracker 3.40 0067  02.08.2006

@<TRIPOS>MOLECULE
ASD01914930
  50   53    0    0    0
SMALL
NO_CHARGES


@<TRIPOS>ATOM
   1 C1            -0.0158     1.3120     0.0093 C.2     
   2 N2             0.0021    -0.0041     0.0020 N.2     
   3 C3             1.3183     1.7636    -0.0011 C.2     
   4 C4             2.1227     0.6785    -0.0146 C.2     
   5 N5             1.3391    -0.4213    -0.0130 N.pl3   
   6 C6            -1.2277     2.1688     0.0199 C.ar    
   7 C7            -1.1049     3.5533    -0.0788 C.ar    
   8 C8            -2.2329     4.3488    -0.0688 C.ar    
   9 C9            -3.4877     3.7746     0.0397 C.ar    
  10 C10           -3.6175     2.3944     0.1385 C.ar    
  11 C11           -2.4904     1.5903     0.1228 C.ar    
  12 C12            3.6296     0.6927    -0.0298 C.3     
  13 C13            1.8063    -1.8097    -0.0245 C.3     
  14 C14            1.9797    -2.2931     1.3923 C.2     
  15 N15            2.4045    -3.5502     1.6282 N.am    
  16 O16            1.7369    -1.5510     2.3203 O.2     
  17 C17            2.5804    -4.0422     3.0031 C.3     
  18 C18            1.8351    -5.3738     3.1427 C.3     
  19 N19            2.2847    -6.2955     2.0909 N.3     
  20 C20            1.9544    -5.7815     0.7550 C.3     
  21 C21            2.6988    -4.4685     0.5176 C.3     
  22 C22            1.7561    -7.5590     2.2803 C.2     
  23 N23            0.9577    -7.9300     3.2513 N.2     
  24 N24            0.6667    -9.1753     3.1106 N.2     
  25 C25            1.2622    -9.6447     2.0538 C.2     
  26 O26            1.9609    -8.6351     1.4985 O.3     
  27 C27            1.1807   -11.0591     1.5403 C.3     
  28 O28           -4.8513     1.8335     0.2453 O.3     
  29 F29           -4.5886     4.5576     0.0500 F       
  30 H30            1.6408     2.7944     0.0009 H       
  31 H31           -0.1270     4.0040    -0.1628 H       
  32 H32           -2.1362     5.4218    -0.1453 H       
  33 H33           -2.5897     0.5176     0.1991 H       
  34 H34            4.0033     0.6907     0.9941 H       
  35 H35            3.9960    -0.1910    -0.5522 H       
  36 H36            3.9792     1.5889    -0.5425 H       
  37 H37            1.0740    -2.4353    -0.5348 H       
  38 H38            2.7609    -1.8675    -0.5475 H       
  39 H39            3.6409    -4.1931     3.2051 H       
  40 H40            2.1704    -3.3175     3.7065 H       
  41 H41            2.0451    -5.8074     4.1205 H       
  42 H42            0.7632    -5.2029     3.0428 H       
  43 H43            2.2510    -6.5107     0.0012 H       
  44 H44            0.8809    -5.6049     0.6884 H       
  45 H45            2.3697    -4.0259    -0.4226 H       
  46 H46            3.7717    -4.6573     0.4809 H       
  47 H47            0.3465   -11.1454     0.8439 H       
  48 H48            2.1088   -11.3140     1.0287 H       
  49 H49            1.0277   -11.7411     2.3767 H       
  50 H50           -5.2580     1.6129    -0.6038 H       
@<TRIPOS>BOND
   1    1    2 2
   2    1    3 1
   3    1    6 1
   4    2    5 1
   5    3    4 2
   6    3   30 1
   7    4    5 1
   8    4   12 1
   9    5   13 1
  10    6    7 ar
  11    6   11 ar
  12    7    8 ar
  13    7   31 1
  14    8    9 ar
  15    8   32 1
  16    9   10 ar
  17    9   29 1
  18   10   11 ar
  19   10   28 1
  20   11   33 1
  21   12   34 1
  22   12   35 1
  23   12   36 1
  24   13   14 1
  25   13   37 1
  26   13   38 1
  27   14   15 am
  28   14   16 2
  29   15   17 1
  30   15   21 1
  31   17   18 1
  32   17   39 1
  33   17   40 1
  34   18   19 1
  35   18   41 1
  36   18   42 1
  37   19   20 1
  38   19   22 1
  39   20   21 1
  40   20   43 1
  41   20   44 1
  42   21   45 1
  43   21   46 1
  44   22   23 2
  45   22   26 1
  46   23   24 1
  47   24   25 2
  48   25   26 1
  49   25   27 1
  50   27   47 1
  51   27   48 1
  52   27   49 1
  53   28   50 1

#	End of record

