#	Name: ASD01150273
#	Creating user name:	WinNT
#	Creation time:	15. 06. 2019 19:03

#	Modifying user name:	WinNT
#	Modification time:	15. 06. 2019 19:03

#	Program:	/corina/corina34_cracker 3.40 0067  02.08.2006

@<TRIPOS>MOLECULE
ASD01150273
  63   65    0    0    0
SMALL
NO_CHARGES


@<TRIPOS>ATOM
   1 C1             0.0011     1.3127     0.0067 C.2     
   2 N2             0.0153    -0.0038    -0.0000 N.2     
   3 C3            -1.2345    -0.4752     0.0010 C.2     
   4 C4            -2.0983     0.6125     0.0089 C.2     
   5 N5            -1.2865     1.7490     0.0184 N.pl3   
   6 N6             1.1149     2.1204     0.0078 N.3     
   7 C7             2.3462     1.3193    -0.0002 C.3     
   8 C8             1.0880     3.0558    -1.1246 C.3     
   9 C9            -1.7164     3.0823     0.0290 C.ar    
  10 N10           -1.6047    -1.8157    -0.0053 N.am    
  11 C11           -3.5075     0.5767     0.0118 C.2     
  12 O12           -4.2123     1.7286     0.0192 O.3     
  13 O13           -4.0894    -0.4931     0.0077 O.2     
  14 C14           -5.6369     1.6175     0.0218 C.3     
  15 C15           -6.0866     0.8525     1.2682 C.3     
  16 C16           -6.2575     3.0160     0.0303 C.3     
  17 C17           -6.0921     0.8652    -1.2302 C.3     
  18 C18           -1.4470     3.8914     1.1247 C.ar    
  19 C19           -1.8721     5.2055     1.1322 C.ar    
  20 C20           -2.5654     5.7155     0.0499 C.ar    
  21 C21           -2.8353     4.9122    -1.0429 C.ar    
  22 C22           -2.4078     3.5989    -1.0587 C.ar    
  23 C23           -0.6590    -2.7759    -0.0127 C.2     
  24 C24           -1.0602    -4.2285    -0.0195 C.3     
  25 O25            0.5148    -2.4710    -0.0140 O.2     
  26 O26            0.1064    -5.0443    -0.1441 O.3     
  27 C27           -0.0609    -6.2828    -0.6782 C.ar    
  28 C28           -1.7804    -4.5648     1.2878 C.3     
  29 C29           -1.3351    -6.7471    -0.9702 C.ar    
  30 C30           -1.5025    -8.0064    -1.5130 C.ar    
  31 C31           -0.4015    -8.8038    -1.7652 C.ar    
  32 C32            0.8695    -8.3435    -1.4745 C.ar    
  33 C33            1.0427    -7.0825    -0.9374 C.ar    
  34 H34            2.3679     0.6953    -0.8937 H       
  35 H35            3.2112     1.9825     0.0008 H       
  36 H36            2.3732     0.6856     0.8862 H       
  37 H37            0.2003     3.6845    -1.0555 H       
  38 H38            1.9797     3.6822    -1.0997 H       
  39 H39            1.0641     2.4947    -2.0588 H       
  40 H40           -2.5435    -2.0596    -0.0043 H       
  41 H41           -5.7623     1.3885     2.1602 H       
  42 H42           -7.1733     0.7678     1.2702 H       
  43 H43           -5.6445    -0.1438     1.2622 H       
  44 H44           -5.9372     3.5610    -0.8577 H       
  45 H45           -7.3442     2.9313     0.0323 H       
  46 H46           -5.9332     3.5520     0.9223 H       
  47 H47           -5.6500    -0.1311    -1.2363 H       
  48 H48           -7.1788     0.7804    -1.2283 H       
  49 H49           -5.7718     1.4102    -2.1182 H       
  50 H50           -0.9058     3.4936     1.9705 H       
  51 H51           -1.6632     5.8352     1.9843 H       
  52 H52           -2.8972     6.7432     0.0582 H       
  53 H53           -3.3773     5.3133    -1.8865 H       
  54 H54           -2.6185     2.9721    -1.9126 H       
  55 H55           -1.7271    -4.4174    -0.8607 H       
  56 H56           -2.6703    -3.9426     1.3829 H       
  57 H57           -2.0706    -5.6155     1.2829 H       
  58 H58           -1.1135    -4.3760     2.1290 H       
  59 H59           -2.1955    -6.1248    -0.7731 H       
  60 H60           -2.4943    -8.3685    -1.7402 H       
  61 H61           -0.5344    -9.7880    -2.1895 H       
  62 H62            1.7279    -8.9685    -1.6717 H       
  63 H63            2.0356    -6.7234    -0.7106 H       
@<TRIPOS>BOND
   1    1    2 2
   2    1    6 1
   3    1    5 1
   4    2    3 1
   5    3    4 2
   6    3   10 1
   7    4    5 1
   8    4   11 1
   9    5    9 1
  10    6    7 1
  11    6    8 1
  12    7   34 1
  13    7   35 1
  14    7   36 1
  15    8   37 1
  16    8   38 1
  17    8   39 1
  18    9   18 ar
  19    9   22 ar
  20   10   23 am
  21   10   40 1
  22   11   12 1
  23   11   13 2
  24   12   14 1
  25   14   15 1
  26   14   16 1
  27   14   17 1
  28   15   41 1
  29   15   42 1
  30   15   43 1
  31   16   44 1
  32   16   45 1
  33   16   46 1
  34   17   47 1
  35   17   48 1
  36   17   49 1
  37   18   19 ar
  38   18   50 1
  39   19   20 ar
  40   19   51 1
  41   20   21 ar
  42   20   52 1
  43   21   22 ar
  44   21   53 1
  45   22   54 1
  46   23   24 1
  47   23   25 2
  48   24   28 1
  49   24   26 1
  50   24   55 1
  51   26   27 1
  52   27   29 ar
  53   27   33 ar
  54   28   56 1
  55   28   57 1
  56   28   58 1
  57   29   30 ar
  58   29   59 1
  59   30   31 ar
  60   30   60 1
  61   31   32 ar
  62   31   61 1
  63   32   33 ar
  64   32   62 1
  65   33   63 1

#	End of record

