#	Name: ASD01810487
#	Creating user name:	WinNT
#	Creation time:	15. 06. 2019 19:24

#	Modifying user name:	WinNT
#	Modification time:	15. 06. 2019 19:24

#	Program:	/corina/corina34_cracker 3.40 0067  02.08.2006

@<TRIPOS>MOLECULE
ASD01810487
  67   70    0    0    0
SMALL
NO_CHARGES


@<TRIPOS>ATOM
   1 C1            -0.1928     1.6813    -1.1630 C.2     
   2 C2            -0.1594     0.2295    -1.4220 C.ar    
   3 C3             0.8640    -0.3310    -2.2022 C.ar    
   4 C4             0.8558    -1.6827    -2.4163 C.ar    
   5 C5            -0.1600    -2.4574    -1.8583 C.ar    
   6 N6            -1.1154    -1.9027    -1.1249 N.ar    
   7 C7            -1.1417    -0.6073    -0.8901 C.ar    
   8 O8             0.6703     2.4017    -1.6265 O.2     
   9 N9            -1.1830     2.2102    -0.4172 N.am    
  10 N10           -0.1717    -3.8251    -2.0733 N.pl3   
  11 C11            0.8786    -4.4485    -2.8823 C.3     
  12 C12            2.0930    -4.7455    -2.0004 C.3     
  13 C13            0.3528    -5.7539    -3.4826 C.3     
  14 C14           -1.1612     3.5696    -0.0882 C.ar    
  15 C15           -2.3537     4.2704     0.0502 C.ar    
  16 C16           -2.3375     5.6136     0.3752 C.ar    
  17 C17           -1.1372     6.2683     0.5643 C.ar    
  18 C18            0.0657     5.5735     0.4281 C.ar    
  19 C19            0.0493     4.2165     0.1053 C.ar    
  20 C20           -3.6685     3.5633    -0.1551 C.3     
  21 C21            1.3530     6.2724     0.6302 C.2     
  22 O22            2.2226     5.7605     1.3078 O.2     
  23 N23            1.5621     7.4770     0.0631 N.am    
  24 C24            2.8688     8.1397     0.1735 C.3     
  25 C25            3.3581     8.5021    -1.2323 C.3     
  26 C26            2.2883     9.3359    -1.9412 C.3     
  27 C27            1.0038     8.5146    -2.0737 C.3     
  28 C28            0.4895     8.1498    -0.6823 C.3     
  29 F29            2.0282    10.4911    -1.1963 F       
  30 C30            2.7804     9.7230    -3.3121 C.ar    
  31 C31            2.1362    10.7237    -4.0177 C.ar    
  32 C32            2.5812    11.0831    -5.2729 C.ar    
  33 C33            3.6848    10.4347    -5.8310 C.ar    
  34 C34            4.3304     9.4260    -5.1131 C.ar    
  35 C35            3.8777     9.0799    -3.8568 C.ar    
  36 C36            4.1520    10.8022    -7.1338 C.1     
  37 N37            4.5227    11.0938    -8.1672 N.1     
  38 H38            1.6401     0.2903    -2.6241 H       
  39 H39            1.6288    -2.1448    -3.0123 H       
  40 H40           -1.9318    -0.1884    -0.2846 H       
  41 H41           -1.9108     1.6481    -0.1085 H       
  42 H42           -0.8753    -4.3706    -1.6882 H       
  43 H43            1.1694    -3.7708    -3.6849 H       
  44 H44            2.4676    -3.8155    -1.5728 H       
  45 H45            1.8022    -5.4232    -1.1978 H       
  46 H46            2.8745    -5.2093    -2.6024 H       
  47 H47           -0.5125    -5.5424    -4.1109 H       
  48 H48            1.1342    -6.2178    -4.0845 H       
  49 H49            0.0619    -6.4317    -2.6800 H       
  50 H50           -3.2672     6.1530     0.4810 H       
  51 H51           -1.1287     7.3182     0.8174 H       
  52 H52            0.9768     3.6728     0.0026 H       
  53 H53           -4.0116     3.1512     0.7939 H       
  54 H54           -4.4068     4.2711    -0.5319 H       
  55 H55           -3.5383     2.7560    -0.8758 H       
  56 H56            2.7696     9.0460     0.7708 H       
  57 H57            3.5822     7.4645     0.6459 H       
  58 H58            4.2799     9.0792    -1.1591 H       
  59 H59            3.5434     7.5899    -1.7994 H       
  60 H60            0.2499     9.1006    -2.5995 H       
  61 H61            1.2113     7.6023    -2.6329 H       
  62 H62           -0.3665     7.4813    -0.7743 H       
  63 H63            0.1923     9.0570    -0.1562 H       
  64 H64            1.2827    11.2244    -3.5848 H       
  65 H65            2.0771    11.8640    -5.8230 H       
  66 H66            5.1845     8.9204    -5.5389 H       
  67 H67            4.3786     8.3027    -3.2988 H       
@<TRIPOS>BOND
   1    1    2 1
   2    1    8 2
   3    1    9 am
   4    2    3 ar
   5    2    7 ar
   6    3    4 ar
   7    3   38 1
   8    4    5 ar
   9    4   39 1
  10    5    6 ar
  11    5   10 1
  12    6    7 ar
  13    7   40 1
  14    9   14 1
  15    9   41 1
  16   10   11 1
  17   10   42 1
  18   11   12 1
  19   11   13 1
  20   11   43 1
  21   12   44 1
  22   12   45 1
  23   12   46 1
  24   13   47 1
  25   13   48 1
  26   13   49 1
  27   14   15 ar
  28   14   19 ar
  29   15   16 ar
  30   15   20 1
  31   16   17 ar
  32   16   50 1
  33   17   18 ar
  34   17   51 1
  35   18   19 ar
  36   18   21 1
  37   19   52 1
  38   20   53 1
  39   20   54 1
  40   20   55 1
  41   21   22 2
  42   21   23 am
  43   23   24 1
  44   23   28 1
  45   24   25 1
  46   24   56 1
  47   24   57 1
  48   25   26 1
  49   25   58 1
  50   25   59 1
  51   26   27 1
  52   26   29 1
  53   26   30 1
  54   27   28 1
  55   27   60 1
  56   27   61 1
  57   28   62 1
  58   28   63 1
  59   30   31 ar
  60   30   35 ar
  61   31   32 ar
  62   31   64 1
  63   32   33 ar
  64   32   65 1
  65   33   34 ar
  66   33   36 1
  67   34   35 ar
  68   34   66 1
  69   35   67 1
  70   36   37 3

#	End of record

