#	Name: ASD04590315
#	Creating user name:	WinNT
#	Creation time:	15. 06. 2019 20:50

#	Modifying user name:	WinNT
#	Modification time:	15. 06. 2019 20:50

#	Program:	/corina/corina34_cracker 3.40 0067  02.08.2006

@<TRIPOS>MOLECULE
ASD04590315
  51   55    0    0    0
SMALL
NO_CHARGES


@<TRIPOS>ATOM
   1 C1            -0.0167     1.3834     0.0096 C.ar    
   2 C2             0.0021    -0.0041     0.0020 C.ar    
   3 C3             1.1863    -0.6848    -0.0129 C.ar    
   4 C4             2.3948     0.0191    -0.0207 C.ar    
   5 C5             2.3756     1.4250    -0.0129 C.ar    
   6 C6             1.1624     2.0987     0.0022 C.ar    
   7 N7             3.6952    -0.3636    -0.0355 N.2     
   8 C8             4.4665     0.6967    -0.0375 C.2     
   9 N9             3.6970     1.8290    -0.0238 N.pl3   
  10 C10            5.9437     0.6731    -0.0514 C.2     
  11 C11            6.7566    -0.4840    -0.0653 C.2     
  12 C12            8.0504    -0.0800    -0.0760 C.2     
  13 N13            8.0626     1.2789    -0.0693 N.pl3   
  14 N14            6.7358     1.7273    -0.0589 N.2     
  15 N15            6.3044    -1.8134    -0.0675 N.am    
  16 C16            7.1923    -2.8272    -0.0814 C.2     
  17 C17            6.7168    -4.2252    -0.0838 C.ar    
  18 O18            8.3850    -2.5907    -0.0920 O.2     
  19 C19            7.1806    -6.5862    -0.1061 C.ar    
  20 C20            5.8238    -6.8486    -0.0882 C.ar    
  21 C21            4.9103    -5.8082    -0.0740 C.ar    
  22 C22            5.3476    -4.5009    -0.0717 C.ar    
  23 C23            7.6349    -5.2797    -0.1040 C.ar    
  24 F24            8.9612    -5.0233    -0.1219 F       
  25 C25            8.1670    -7.7254    -0.1215 C.3     
  26 N26            8.6877    -7.9407     1.2352 N.3     
  27 C27            9.4688    -9.1890     1.3094 C.3     
  28 C28            9.5533    -6.8180     1.6547 C.3     
  29 C29           10.6383    -7.4680     2.5492 C.3     
  30 C30           10.8760    -8.8180     1.8227 C.3     
  31 H31           -0.9614     1.9069     0.0169 H       
  32 H32           -0.9290    -0.5513     0.0083 H       
  33 H33            1.1893    -1.7648    -0.0184 H       
  34 H34            1.1417     3.1785     0.0082 H       
  35 H35            4.0192     2.7439    -0.0218 H       
  36 H36            8.9176    -0.7236    -0.0875 H       
  37 H37            8.8531     1.8410    -0.0742 H       
  38 H38            5.3529    -2.0020    -0.0591 H       
  39 H39            5.4743    -7.8705    -0.0858 H       
  40 H40            3.8517    -6.0217    -0.0601 H       
  41 H41            4.6328    -3.6914    -0.0602 H       
  42 H42            7.6700    -8.6316    -0.4680 H       
  43 H43            8.9909    -7.4836    -0.7928 H       
  44 H44            8.9928    -9.8836     2.0016 H       
  45 H45            9.5420    -9.6401     0.3198 H       
  46 H46           10.0110    -6.3463     0.7852 H       
  47 H47            8.9786    -6.0882     2.2250 H       
  48 H48           11.5467    -6.8657     2.5612 H       
  49 H49           10.2653    -7.6293     3.5607 H       
  50 H50           11.2430    -9.5713     2.5197 H       
  51 H51           11.5686    -8.6911     0.9907 H       
@<TRIPOS>BOND
   1    1    2 ar
   2    1    6 ar
   3    1   31 1
   4    2    3 ar
   5    2   32 1
   6    3    4 ar
   7    3   33 1
   8    4    5 ar
   9    4    7 1
  10    5    6 ar
  11    5    9 1
  12    6   34 1
  13    7    8 2
  14    8    9 1
  15    8   10 1
  16    9   35 1
  17   10   11 1
  18   10   14 2
  19   11   12 2
  20   11   15 1
  21   12   13 1
  22   12   36 1
  23   13   14 1
  24   13   37 1
  25   15   16 am
  26   15   38 1
  27   16   17 1
  28   16   18 2
  29   17   22 ar
  30   17   23 ar
  31   19   20 ar
  32   19   25 1
  33   19   23 ar
  34   20   21 ar
  35   20   39 1
  36   21   22 ar
  37   21   40 1
  38   22   41 1
  39   23   24 1
  40   25   26 1
  41   25   42 1
  42   25   43 1
  43   26   27 1
  44   26   28 1
  45   27   30 1
  46   27   44 1
  47   27   45 1
  48   28   29 1
  49   28   46 1
  50   28   47 1
  51   29   30 1
  52   29   48 1
  53   29   49 1
  54   30   50 1
  55   30   51 1

#	End of record

