#	Name: ASD05730025
#	Creating user name:	WinNT
#	Creation time:	15. 06. 2019 21:02

#	Modifying user name:	WinNT
#	Modification time:	15. 06. 2019 21:02

#	Program:	/corina/corina34_cracker 3.40 0067  02.08.2006

@<TRIPOS>MOLECULE
ASD05730025
  67   71    0    0    0
SMALL
NO_CHARGES


@<TRIPOS>ATOM
   1 C1            -0.1792     1.1491     0.7779 C.ar    
   2 C2            -0.1964    -0.2315     0.5529 C.ar    
   3 C3            -1.3577    -0.8620     0.1699 C.ar    
   4 C4            -2.5321    -0.1315     0.0019 C.ar    
   5 C5            -2.5176     1.2546     0.2276 C.ar    
   6 C6            -1.3499     1.8919     0.6189 C.ar    
   7 N7            -3.8094    -0.5181    -0.3702 N.am    
   8 C8            -4.6502     0.5292    -0.4064 C.2     
   9 C9            -3.8951     1.7322    -0.0302 C.2     
  10 C10           -4.3672     3.0264     0.0622 C.2     
  11 C11           -5.7432     3.2893    -0.1071 C.2     
  12 O12           -6.7377     2.8290     0.6806 O.3     
  13 C13           -7.9155     3.2712     0.2325 C.2     
  14 C14           -7.6984     4.0484    -0.8860 C.2     
  15 C15           -6.2995     4.0645    -1.1014 C.2     
  16 C16           -5.5645     4.7806    -2.2050 C.3     
  17 C17           -8.7233     4.7333    -1.6964 C.2     
  18 O18           -9.0575     5.8694    -1.4205 O.2     
  19 N19           -9.2893     4.0997    -2.7427 N.am    
  20 O20           -5.8316     0.4886    -0.6998 O.2     
  21 C21            1.0717     1.8171     1.1882 C.2     
  22 O22            1.0844     3.0171     1.3832 O.2     
  23 N23            2.1997     1.0967     1.3465 N.am    
  24 C24            3.4411     1.7596     1.7536 C.3     
  25 C25            4.2324     0.8393     2.6469 C.ar    
  26 C26            4.8634    -1.3753     3.3030 C.ar    
  27 C27            4.1379    -0.5303     2.4847 C.ar    
  28 C28          -10.3136     4.7623    -3.5656 C.3     
  29 C29           -9.9141     4.6238    -5.0391 C.3     
  30 O30           -9.6584     3.2476    -5.3301 O.3     
  31 C31           -8.5701     2.6858    -4.5926 C.3     
  32 C32           -8.8968     2.7272    -3.0997 C.3     
  33 O33            4.2133     2.0782     0.5942 O.3     
  34 C34            5.0565     1.3655     3.6242 C.ar    
  35 C35            5.7830     0.5226     4.4437 C.ar    
  36 C36            5.6851    -0.8495     4.2856 C.ar    
  37 F37            6.3948    -1.6745     5.0862 F       
  38 C38           -9.2584     2.9706     0.8466 C.3     
  39 C39           -3.4129     4.1583     0.3439 C.3     
  40 H40            0.7087    -0.8066     0.6804 H       
  41 H41           -1.3588    -1.9282    -0.0017 H       
  42 H42           -1.3444     2.9581     0.7911 H       
  43 H43           -4.0647    -1.4304    -0.5785 H       
  44 H44           -5.2257     5.7521    -1.8451 H       
  45 H45           -4.7039     4.1869    -2.5131 H       
  46 H46           -6.2323     4.9207    -3.0550 H       
  47 H47            2.1896     0.1393     1.1909 H       
  48 H48            3.2034     2.6754     2.2947 H       
  49 H49            4.7895    -2.4452     3.1761 H       
  50 H50            3.4967    -0.9402     1.7184 H       
  51 H51          -11.2806     4.2869    -3.4012 H       
  52 H52          -10.3727     5.8175    -3.2989 H       
  53 H53          -10.7249     4.9851    -5.6716 H       
  54 H54           -9.0145     5.2093    -5.2290 H       
  55 H55           -8.4140     1.6530    -4.9040 H       
  56 H56           -7.6657     3.2643    -4.7809 H       
  57 H57           -8.0194     2.4331    -2.5236 H       
  58 H58           -9.7218     2.0478    -2.8855 H       
  59 H59            4.4615     1.3089     0.0633 H       
  60 H60            5.1329     2.4358     3.7471 H       
  61 H61            6.4270     0.9339     5.2069 H       
  62 H62           -9.1240     2.3325     1.7199 H       
  63 H63           -9.7371     3.9025     1.1477 H       
  64 H64           -9.8857     2.4595     0.1162 H       
  65 H65           -2.6563     4.1991    -0.4396 H       
  66 H66           -3.9624     5.0993     0.3679 H       
  67 H67           -2.9299     3.9950     1.3073 H       
@<TRIPOS>BOND
   1    1    2 ar
   2    1   21 1
   3    1    6 ar
   4    2    3 ar
   5    2   40 1
   6    3    4 ar
   7    3   41 1
   8    4    5 ar
   9    4    7 1
  10    5    6 ar
  11    5    9 1
  12    6   42 1
  13    7    8 am
  14    7   43 1
  15    8    9 1
  16    8   20 2
  17    9   10 2
  18   10   11 1
  19   10   39 1
  20   11   12 1
  21   11   15 2
  22   12   13 1
  23   13   14 2
  24   13   38 1
  25   14   15 1
  26   14   17 1
  27   15   16 1
  28   16   44 1
  29   16   45 1
  30   16   46 1
  31   17   18 2
  32   17   19 am
  33   19   28 1
  34   19   32 1
  35   21   22 2
  36   21   23 am
  37   23   24 1
  38   23   47 1
  39   24   25 1
  40   24   33 1
  41   24   48 1
  42   25   34 ar
  43   25   27 ar
  44   26   27 ar
  45   26   36 ar
  46   26   49 1
  47   27   50 1
  48   28   29 1
  49   28   51 1
  50   28   52 1
  51   29   30 1
  52   29   53 1
  53   29   54 1
  54   30   31 1
  55   31   32 1
  56   31   55 1
  57   31   56 1
  58   32   57 1
  59   32   58 1
  60   33   59 1
  61   34   35 ar
  62   34   60 1
  63   35   36 ar
  64   35   61 1
  65   36   37 1
  66   38   62 1
  67   38   63 1
  68   38   64 1
  69   39   65 1
  70   39   66 1
  71   39   67 1

#	End of record

