#	Name: ASD01917643
#	Creating user name:	WinNT
#	Creation time:	15. 06. 2019 20:09

#	Modifying user name:	WinNT
#	Modification time:	15. 06. 2019 20:09

#	Program:	/corina/corina34_cracker 3.40 0067  02.08.2006

@<TRIPOS>MOLECULE
ASD01917643
  44   46    0    0    0
SMALL
NO_CHARGES


@<TRIPOS>ATOM
   1 C1            -0.6850     0.4904     3.0412 C.ar    
   2 C2            -0.8173    -0.8730     3.2513 C.ar    
   3 C3            -2.0558    -1.4798     3.1394 C.ar    
   4 C4            -3.1683    -0.7312     2.8176 C.ar    
   5 C5            -3.0440     0.6447     2.6040 C.ar    
   6 C6            -1.7921     1.2534     2.7235 C.ar    
   7 F7             0.5277     1.0754     3.1529 F       
   8 C8            -4.1954     1.4275     2.2692 C.1     
   9 C9            -5.1394     2.0693     1.9946 C.1     
  10 C10           -6.2908     2.8521     1.6598 C.ar    
  11 C11           -6.1740     4.2326     1.4441 C.ar    
  12 C12           -7.3131     4.9450     1.1234 C.ar    
  13 C13           -8.5323     4.2730     1.0256 C.ar    
  14 N14           -8.6083     2.9632     1.2362 N.ar    
  15 C15           -7.5496     2.2485     1.5372 C.ar    
  16 C16           -9.7566     5.0291     0.6831 C.2     
  17 O17           -9.7470     6.2443     0.7065 O.2     
  18 N18          -10.8829     4.3705     0.3450 N.am    
  19 C19          -10.8796     2.9110     0.1572 C.3     
  20 C20          -12.0249     2.3147     0.9835 C.3     
  21 O21          -13.2410     2.9935     0.6610 O.3     
  22 C22          -13.2356     4.3872     0.9797 C.3     
  23 C23          -12.1536     5.0889     0.1588 C.3     
  24 C24          -12.0042     6.5359     0.6330 C.3     
  25 C25          -12.5360     5.0683    -1.3225 C.3     
  26 H26            0.0504    -1.4647     3.5032 H       
  27 H27           -2.1514    -2.5429     3.3041 H       
  28 H28           -4.1339    -1.2071     2.7305 H       
  29 H29           -1.6887     2.3160     2.5599 H       
  30 H30           -5.2173     4.7267     1.5269 H       
  31 H31           -7.2609     6.0099     0.9508 H       
  32 H32           -7.6511     1.1858     1.7014 H       
  33 H33          -11.0265     2.6762    -0.8970 H       
  34 H34           -9.9291     2.4994     0.4966 H       
  35 H35          -12.1273     1.2545     0.7518 H       
  36 H36          -11.8101     2.4370     2.0451 H       
  37 H37          -14.2090     4.8180     0.7453 H       
  38 H38          -13.0252     4.5171     2.0413 H       
  39 H39          -11.5715     6.5475     1.6334 H       
  40 H40          -11.3510     7.0770    -0.0516 H       
  41 H41          -12.9835     7.0140     0.6551 H       
  42 H42          -13.4859     5.5850    -1.4598 H       
  43 H43          -11.7624     5.5694    -1.9045 H       
  44 H44          -12.6320     4.0359    -1.6586 H       
@<TRIPOS>BOND
   1    1    2 ar
   2    1    7 1
   3    1    6 ar
   4    2    3 ar
   5    2   26 1
   6    3    4 ar
   7    3   27 1
   8    4    5 ar
   9    4   28 1
  10    5    6 ar
  11    5    8 1
  12    6   29 1
  13    8    9 3
  14    9   10 1
  15   10   11 ar
  16   10   15 ar
  17   11   12 ar
  18   11   30 1
  19   12   13 ar
  20   12   31 1
  21   13   14 ar
  22   13   16 1
  23   14   15 ar
  24   15   32 1
  25   16   17 2
  26   16   18 am
  27   18   19 1
  28   18   23 1
  29   19   20 1
  30   19   33 1
  31   19   34 1
  32   20   21 1
  33   20   35 1
  34   20   36 1
  35   21   22 1
  36   22   23 1
  37   22   37 1
  38   22   38 1
  39   23   24 1
  40   23   25 1
  41   24   39 1
  42   24   40 1
  43   24   41 1
  44   25   42 1
  45   25   43 1
  46   25   44 1

#	End of record

