#	Name: ASD03320107
#	Creating user name:	WinNT
#	Creation time:	15. 06. 2019 20:36

#	Modifying user name:	WinNT
#	Modification time:	15. 06. 2019 20:36

#	Program:	/corina/corina34_cracker 3.40 0067  02.08.2006

@<TRIPOS>MOLECULE
ASD03320107
  49   52    0    0    0
SMALL
NO_CHARGES


@<TRIPOS>ATOM
   1 C1            -0.0181     1.4709     0.0147 C.2     
   2 C2             0.0015    -0.0045     0.0116 C.ar    
   3 C3             1.2192    -0.6978     0.0010 C.ar    
   4 C4             1.1851    -2.0893    -0.0015 C.ar    
   5 C5            -0.0614    -2.7401     0.0066 C.ar    
   6 N6            -1.1881    -2.0440     0.0160 N.ar    
   7 C7            -1.1932    -0.7273     0.0250 C.ar    
   8 O8             1.0268     2.0928     0.0080 O.2     
   9 N9            -1.1942     2.1292     0.0193 N.am    
  10 N10            2.6868    -4.0139     0.6880 N.pl3   
  11 N11            3.9924    -4.4242     0.3895 N.2     
  12 C12            4.5141    -3.5700    -0.4538 C.2     
  13 C13            3.5683    -2.5820    -0.7287 C.2     
  14 C14            2.4404    -2.8713    -0.0131 C.2     
  15 N15           -0.1114    -4.1218     0.0041 N.3     
  16 C16           -1.5060    -4.6002     0.0137 C.3     
  17 C17           -1.6856    -5.5106    -1.2193 C.3     
  18 C18           -0.2337    -5.9516    -1.5425 C.3     
  19 C19            0.5677    -4.6745    -1.1872 C.3     
  20 O20           -2.4976    -6.6417    -0.8982 O.3     
  21 C21           -1.2149     3.5248     0.1327 C.ar    
  22 C22           -2.1835     4.2617    -0.5365 C.ar    
  23 C23           -2.2033     5.6392    -0.4234 C.ar    
  24 C24           -1.2544     6.2854     0.3594 C.ar    
  25 C25           -0.2882     5.5490     1.0267 C.ar    
  26 C26           -0.2709     4.1716     0.9185 C.ar    
  27 O27           -1.2734     7.6409     0.4704 O.3     
  28 C28           -0.2682     8.2387     1.2916 C.3     
  29 F29            0.9969     7.9207     0.7861 F       
  30 F30           -0.4336     9.6279     1.2942 F       
  31 F31           -0.3839     7.7529     2.5984 F       
  32 F32           -3.1447     6.3572    -1.0742 F       
  33 H33            2.1595    -0.1664    -0.0054 H       
  34 H34           -2.1349    -0.1988     0.0381 H       
  35 H35           -2.0262     1.6363    -0.0559 H       
  36 H36            2.0676    -4.4643     1.2835 H       
  37 H37            5.5104    -3.6211    -0.8675 H       
  38 H38            3.7035    -1.7382    -1.3891 H       
  39 H39           -1.6972    -5.1675     0.9246 H       
  40 H40           -2.1890    -3.7529    -0.0483 H       
  41 H41           -2.1130    -4.9519    -2.0519 H       
  42 H42            0.0687    -6.7897    -0.9145 H       
  43 H43           -0.1266    -6.1986    -2.5987 H       
  44 H44            0.5297    -3.9613    -2.0106 H       
  45 H45            1.6011    -4.9283    -0.9513 H       
  46 H46           -2.6413    -7.2459    -1.6395 H       
  47 H47           -2.9205     3.7589    -1.1450 H       
  48 H48            0.4493     6.0518     1.6347 H       
  49 H49            0.4799     3.5984     1.4422 H       
@<TRIPOS>BOND
   1    1    2 1
   2    1    8 2
   3    1    9 am
   4    2    3 ar
   5    2    7 ar
   6    3    4 ar
   7    3   33 1
   8    4    5 ar
   9    4   14 1
  10    5    6 ar
  11    5   15 1
  12    6    7 ar
  13    7   34 1
  14    9   21 1
  15    9   35 1
  16   10   11 1
  17   10   14 1
  18   10   36 1
  19   11   12 2
  20   12   13 1
  21   12   37 1
  22   13   14 2
  23   13   38 1
  24   15   16 1
  25   15   19 1
  26   16   17 1
  27   16   39 1
  28   16   40 1
  29   17   18 1
  30   17   20 1
  31   17   41 1
  32   18   19 1
  33   18   42 1
  34   18   43 1
  35   19   44 1
  36   19   45 1
  37   20   46 1
  38   21   22 ar
  39   21   26 ar
  40   22   23 ar
  41   22   47 1
  42   23   24 ar
  43   23   32 1
  44   24   25 ar
  45   24   27 1
  46   25   26 ar
  47   25   48 1
  48   26   49 1
  49   27   28 1
  50   28   29 1
  51   28   30 1
  52   28   31 1

#	End of record

