#	Name: ASD02198746
#	Creating user name:	WinNT
#	Creation time:	15. 06. 2019 20:20

#	Modifying user name:	WinNT
#	Modification time:	15. 06. 2019 20:20

#	Program:	/corina/corina34_cracker 3.40 0067  02.08.2006

@<TRIPOS>MOLECULE
ASD02198746
  48   52    0    0    0
SMALL
NO_CHARGES


@<TRIPOS>ATOM
   1 C1            -0.0432     1.5015    -0.1152 C.2     
   2 C2            -0.0730     0.1618     0.0972 C.2     
   3 N3             1.0715    -0.5398     0.2601 N.pl3   
   4 N4             2.2360    -0.0050     0.2265 N.2     
   5 C5             2.4075     1.2844     0.0280 C.2     
   6 C6             1.2217     2.1355    -0.1606 C.2     
   7 C7             0.9801    -1.9174     0.4763 C.ar    
   8 C8             1.5825    -2.4881     1.5980 C.ar    
   9 C9             1.4921    -3.8514     1.8120 C.ar    
  10 C10            0.7980    -4.6529     0.9046 C.ar    
  11 C11            0.1970    -4.0761    -0.2164 C.ar    
  12 C12            0.2845    -2.7165    -0.4232 C.ar    
  13 C13            3.7644     1.8668    -0.0041 C.2     
  14 N14            4.3068     2.6067    -1.0171 N.pl3   
  15 N15            5.6083     2.9588    -0.6386 N.2     
  16 C16            5.8515     2.4597     0.5471 C.2     
  17 C17            4.7197     1.7716     0.9841 C.2     
  18 C18            3.6744     2.9507    -2.2186 C.ar    
  19 C19            3.8082     4.2337    -2.7327 C.ar    
  20 C20            3.1838     4.5697    -3.9180 C.ar    
  21 C21            2.4258     3.6301    -4.5924 C.ar    
  22 C22            2.2907     2.3516    -4.0830 C.ar    
  23 C23            2.9172     2.0078    -2.9012 C.ar    
  24 O24            1.3246     3.3386    -0.3484 O.2     
  25 C25            0.6994    -6.1103     1.1294 C.2     
  26 N26            1.2128    -6.7561     2.1374 N.2     
  27 S27           -0.1377    -7.2522     0.0811 S.3     
  28 C28            0.3162    -8.5690     1.1612 C.2     
  29 C29            1.0232    -8.0549     2.1731 C.2     
  30 O30            2.2582    -1.7047     2.4795 O.3     
  31 C31            2.8498    -2.3563     3.6053 C.3     
  32 H32           -0.9546     2.0651    -0.2498 H       
  33 H33           -1.0228    -0.3507     0.1371 H       
  34 H34            1.9581    -4.2949     2.6795 H       
  35 H35           -0.3404    -4.6954    -0.9193 H       
  36 H36           -0.1812    -2.2722    -1.2905 H       
  37 H37            6.7745     2.5666     1.0976 H       
  38 H38            4.6135     1.2520     1.9250 H       
  39 H39            4.3995     4.9682    -2.2061 H       
  40 H40            3.2875     5.5674    -4.3183 H       
  41 H41            1.9379     3.8955    -5.5186 H       
  42 H42            1.6979     1.6201    -4.6120 H       
  43 H43            2.8116     1.0090    -2.5040 H       
  44 H44            0.0638    -9.6109     1.0301 H       
  45 H45            1.4155    -8.6702     2.9694 H       
  46 H46            3.3568    -1.6185     4.2271 H       
  47 H47            2.0731    -2.8508     4.1885 H       
  48 H48            3.5710    -3.0967     3.2590 H       
@<TRIPOS>BOND
   1    1    2 2
   2    1    6 1
   3    1   32 1
   4    2    3 1
   5    2   33 1
   6    3    4 1
   7    3    7 1
   8    4    5 2
   9    5    6 1
  10    5   13 1
  11    6   24 2
  12    7    8 ar
  13    7   12 ar
  14    8    9 ar
  15    8   30 1
  16    9   10 ar
  17    9   34 1
  18   10   11 ar
  19   10   25 1
  20   11   12 ar
  21   11   35 1
  22   12   36 1
  23   13   14 1
  24   13   17 2
  25   14   15 1
  26   14   18 1
  27   15   16 2
  28   16   17 1
  29   16   37 1
  30   17   38 1
  31   18   19 ar
  32   18   23 ar
  33   19   20 ar
  34   19   39 1
  35   20   21 ar
  36   20   40 1
  37   21   22 ar
  38   21   41 1
  39   22   23 ar
  40   22   42 1
  41   23   43 1
  42   25   27 1
  43   25   26 2
  44   26   29 1
  45   27   28 1
  46   28   29 2
  47   28   44 1
  48   29   45 1
  49   30   31 1
  50   31   46 1
  51   31   47 1
  52   31   48 1

#	End of record

