#	Name: ASD03540475
#	Creating user name:	WinNT
#	Creation time:	15. 06. 2019 20:43

#	Modifying user name:	WinNT
#	Modification time:	15. 06. 2019 20:43

#	Program:	/corina/corina34_cracker 3.40 0067  02.08.2006

@<TRIPOS>MOLECULE
ASD03540475
  59   62    0    0    0
SMALL
NO_CHARGES


@<TRIPOS>ATOM
   1 C1             2.7128    -8.7122    -2.5605 C.2     
   2 C2             2.0331    -7.5771    -1.9108 C.ar    
   3 C3             2.7740    -6.4741    -1.4625 C.ar    
   4 C4             2.1239    -5.4120    -0.8526 C.ar    
   5 C5             0.7531    -5.4419    -0.6877 C.ar    
   6 C6             0.0175    -6.5294    -1.1290 C.ar    
   7 C7             0.6460    -7.5911    -1.7430 C.ar    
   8 O8             3.9187    -8.6940    -2.7091 O.2     
   9 O9             1.9976    -9.7725    -2.9848 O.3     
  10 C10            0.0534    -4.2844    -0.0231 C.3     
  11 N11           -3.3821    -4.7405     1.2263 N.am    
  12 C12           -2.3054    -4.3298     0.5350 C.2     
  13 N13           -1.0665    -4.7854     0.7776 N.am    
  14 C14           -0.8332    -5.6977     1.7461 C.2     
  15 C15           -1.9790    -6.1844     2.5364 C.ar    
  16 C16           -1.8210    -7.1222     3.5490 C.ar    
  17 C17           -2.9396    -7.5477     4.2644 C.ar    
  18 C18           -4.2053    -7.0313     3.9605 C.ar    
  19 C19           -4.3603    -6.1089     2.9645 C.ar    
  20 C20           -3.2573    -5.6733     2.2410 C.ar    
  21 O21            0.2915    -6.1069     1.9602 O.2     
  22 O22           -2.4603    -3.5093    -0.3485 O.2     
  23 C23            1.0390    -3.5457     0.8846 C.3     
  24 C24           -2.7895    -8.5442     5.3434 C.2     
  25 N25           -3.8702    -8.9561     6.0355 N.am    
  26 O26           -1.6910    -8.9933     5.6076 O.2     
  27 C27           -3.7212    -9.9449     7.1061 C.3     
  28 C28           -5.0691   -10.2316     7.7162 C.ar    
  29 C29           -5.8569   -11.2458     7.2039 C.ar    
  30 C30           -7.0928   -11.5106     7.7613 C.ar    
  31 C31           -7.5433   -10.7579     8.8361 C.ar    
  32 C32           -6.7510    -9.7408     9.3483 C.ar    
  33 C33           -5.5134    -9.4837     8.7909 C.ar    
  34 O34           -8.7590   -11.0162     9.3859 O.3     
  35 C35           -9.1580   -10.2013    10.4900 C.3     
  36 O36            4.1205    -6.4465    -1.6243 O.3     
  37 H37            2.6903    -4.5604    -0.5057 H       
  38 H38           -1.0541    -6.5435    -0.9952 H       
  39 H39            0.0678    -8.4348    -2.0899 H       
  40 H40            2.4874   -10.4927    -3.4050 H       
  41 H41           -0.3217    -3.6008    -0.7847 H       
  42 H42           -4.2559    -4.3768     1.0139 H       
  43 H43           -0.8427    -7.5176     3.7792 H       
  44 H44           -5.0674    -7.3657     4.5185 H       
  45 H45           -5.3416    -5.7183     2.7391 H       
  46 H46            1.4140    -4.2293     1.6462 H       
  47 H47            1.8722    -3.1729     0.2888 H       
  48 H48            0.5328    -2.7085     1.3653 H       
  49 H49           -4.7466    -8.5978     5.8247 H       
  50 H50           -3.3051   -10.8649     6.6957 H       
  51 H51           -3.0517    -9.5532     7.8719 H       
  52 H52           -5.5058   -11.8313     6.3670 H       
  53 H53           -7.7079   -12.3027     7.3606 H       
  54 H54           -7.0995    -9.1534    10.1849 H       
  55 H55           -4.8942    -8.6951     9.1923 H       
  56 H56           -8.4396   -10.3127    11.3021 H       
  57 H57           -9.1938    -9.1578    10.1771 H       
  58 H58          -10.1450   -10.5119    10.8328 H       
  59 H59            4.4084    -6.0499    -2.4579 H       
@<TRIPOS>BOND
   1    1    2 1
   2    1    8 2
   3    1    9 1
   4    2    3 ar
   5    2    7 ar
   6    3    4 ar
   7    3   36 1
   8    4    5 ar
   9    4   37 1
  10    5    6 ar
  11    5   10 1
  12    6    7 ar
  13    6   38 1
  14    7   39 1
  15    9   40 1
  16   10   13 1
  17   10   23 1
  18   10   41 1
  19   11   12 am
  20   11   20 1
  21   11   42 1
  22   12   13 am
  23   12   22 2
  24   13   14 am
  25   14   15 1
  26   14   21 2
  27   15   16 ar
  28   15   20 ar
  29   16   17 ar
  30   16   43 1
  31   17   18 ar
  32   17   24 1
  33   18   19 ar
  34   18   44 1
  35   19   20 ar
  36   19   45 1
  37   23   46 1
  38   23   47 1
  39   23   48 1
  40   24   25 am
  41   24   26 2
  42   25   27 1
  43   25   49 1
  44   27   28 1
  45   27   50 1
  46   27   51 1
  47   28   29 ar
  48   28   33 ar
  49   29   30 ar
  50   29   52 1
  51   30   31 ar
  52   30   53 1
  53   31   32 ar
  54   31   34 1
  55   32   33 ar
  56   32   54 1
  57   33   55 1
  58   34   35 1
  59   35   56 1
  60   35   57 1
  61   35   58 1
  62   36   59 1

#	End of record

