#	Name: ASD09890081
#	Creating user name:	WinNT
#	Creation time:	15. 06. 2019 21:24

#	Modifying user name:	WinNT
#	Modification time:	15. 06. 2019 21:24

#	Program:	/corina/corina34_cracker 3.40 0067  02.08.2006

@<TRIPOS>MOLECULE
ASD09890081
  42   45    0    0    0
SMALL
NO_CHARGES


@<TRIPOS>ATOM
   1 C1            -0.0176     1.3671     0.0634 C.2     
   2 N2            -0.0054    -0.0002     0.0336 N.pl3   
   3 C3            -1.2996    -0.4352     0.1168 C.2     
   4 N4            -2.0758     0.6192     0.1945 N.2     
   5 N5            -1.2621     1.7592     0.1654 N.2     
   6 S6            -1.8302    -2.1154     0.1192 S.3     
   7 C7            -3.6338    -1.9735     0.2509 C.3     
   8 C8             1.1335    -0.8132    -0.0653 C.ar    
   9 C9             2.0780    -0.8327     0.9569 C.ar    
  10 C10            3.1864    -1.6517     0.8136 C.ar    
  11 C11            3.3171    -2.4165    -0.3303 C.ar    
  12 N12            2.4038    -2.3751    -1.2809 N.ar    
  13 C13            1.3322    -1.6143    -1.1815 C.ar    
  14 C14           -4.2814    -3.3651     0.1413 C.3     
  15 C15           -5.0387    -3.6041     1.4639 C.3     
  16 C16           -5.3158    -2.1797     2.0057 C.3     
  17 C17           -4.0203    -1.4155     1.6362 C.3     
  18 O18            1.0702     2.1752     0.0035 O.3     
  19 C19            0.8650     3.5152    -0.0919 C.ar    
  20 C20           -0.4175     4.0096    -0.2838 C.ar    
  21 C21            1.9364     4.3904     0.0080 C.ar    
  22 C22            1.7250     5.7543    -0.0895 C.ar    
  23 C23            0.4440     6.2446    -0.2868 C.ar    
  24 C24           -0.6253     5.3718    -0.3812 C.ar    
  25 F25            2.7675     6.6081     0.0081 F       
  26 Cl26           0.1797     7.9560    -0.4084 Cl      
  27 H27           -4.0152    -1.3214    -0.5348 H       
  28 H28            1.9502    -0.2241     1.8399 H       
  29 H29            3.9396    -1.6919     1.5865 H       
  30 H30            4.1791    -3.0564    -0.4475 H       
  31 H31            0.6057    -1.6071    -1.9806 H       
  32 H32           -4.9777    -3.3880    -0.6970 H       
  33 H33           -3.5119    -4.1257     0.0090 H       
  34 H34           -5.9750    -4.1302     1.2777 H       
  35 H35           -4.4179    -4.1641     2.1632 H       
  36 H36           -6.1797    -1.7386     1.5084 H       
  37 H37           -5.4585    -2.1984     3.0861 H       
  38 H38           -3.2349    -1.6220     2.3633 H       
  39 H39           -4.2133    -0.3444     1.5757 H       
  40 H40           -1.2531     3.3293    -0.3573 H       
  41 H41            2.9345     4.0077     0.1621 H       
  42 H42           -1.6230     5.7556    -0.5350 H       
@<TRIPOS>BOND
   1    1    2 1
   2    1   18 1
   3    1    5 2
   4    2    3 1
   5    2    8 1
   6    3    4 2
   7    3    6 1
   8    4    5 1
   9    6    7 1
  10    7   14 1
  11    7   17 1
  12    7   27 1
  13    8    9 ar
  14    8   13 ar
  15    9   10 ar
  16    9   28 1
  17   10   11 ar
  18   10   29 1
  19   11   12 ar
  20   11   30 1
  21   12   13 ar
  22   13   31 1
  23   14   15 1
  24   14   32 1
  25   14   33 1
  26   15   16 1
  27   15   34 1
  28   15   35 1
  29   16   17 1
  30   16   36 1
  31   16   37 1
  32   17   38 1
  33   17   39 1
  34   18   19 1
  35   19   20 ar
  36   19   21 ar
  37   20   24 ar
  38   20   40 1
  39   21   22 ar
  40   21   41 1
  41   22   23 ar
  42   22   25 1
  43   23   24 ar
  44   23   26 1
  45   24   42 1

#	End of record

