#	Name: ASD03080088
#	Creating user name:	WinNT
#	Creation time:	15. 06. 2019 20:26

#	Modifying user name:	WinNT
#	Modification time:	15. 06. 2019 20:26

#	Program:	/corina/corina34_cracker 3.40 0067  02.08.2006

@<TRIPOS>MOLECULE
ASD03080088
  26   28    0    0    0
SMALL
NO_CHARGES


@<TRIPOS>ATOM
   1 Cl1            0.0021    -0.0041     0.0020 Cl      
   2 C2            -0.0215     1.7317     0.0116 C.ar    
   3 C3             1.1638     2.4403     0.0041 C.ar    
   4 C4             1.1461     3.8234     0.0117 C.ar    
   5 C5            -0.0572     4.5062     0.0269 C.ar    
   6 C6            -1.2490     3.8112     0.0345 C.ar    
   7 C7            -1.2397     2.4157     0.0210 C.ar    
   8 C8            -2.5126     1.6648     0.0292 C.2     
   9 O9            -3.7488     2.1869     0.0486 O.3     
  10 N10           -4.5730     1.2973     0.0497 N.2     
  11 C11           -3.9822     0.1300     0.0316 C.2     
  12 N12           -2.6514     0.3523     0.0129 N.2     
  13 C13           -4.6524    -1.1945     0.0275 C.ar    
  14 C14           -6.0465    -1.2847     0.0431 C.ar    
  15 C15           -6.6233    -2.5435     0.0380 C.ar    
  16 C16           -5.8087    -3.6605     0.0177 C.ar    
  17 N17           -4.4947    -3.5437     0.0033 N.ar    
  18 C18           -3.9015    -2.3677     0.0020 C.ar    
  19 H19            2.1066     1.9135    -0.0075 H       
  20 H20            2.0758     4.3729     0.0061 H       
  21 H21           -0.0636     5.5862     0.0332 H       
  22 H22           -2.1872     4.3460     0.0467 H       
  23 H23           -6.6587    -0.3951     0.0592 H       
  24 H24           -7.6978    -2.6516     0.0500 H       
  25 H25           -6.2550    -4.6440     0.0140 H       
  26 H26           -2.8229    -2.3124    -0.0100 H       
@<TRIPOS>BOND
   1    1    2 1
   2    2    3 ar
   3    2    7 ar
   4    3    4 ar
   5    3   19 1
   6    4    5 ar
   7    4   20 1
   8    5    6 ar
   9    5   21 1
  10    6    7 ar
  11    6   22 1
  12    7    8 1
  13    8    9 1
  14    8   12 2
  15    9   10 1
  16   10   11 2
  17   11   12 1
  18   11   13 1
  19   13   14 ar
  20   13   18 ar
  21   14   15 ar
  22   14   23 1
  23   15   16 ar
  24   15   24 1
  25   16   17 ar
  26   16   25 1
  27   17   18 ar
  28   18   26 1

#	End of record

