#	Name: ASD03491006
#	Creating user name:	WinNT
#	Creation time:	15. 06. 2019 20:42

#	Modifying user name:	WinNT
#	Modification time:	15. 06. 2019 20:42

#	Program:	/corina/corina34_cracker 3.40 0067  02.08.2006

@<TRIPOS>MOLECULE
ASD03491006
  70   73    0    0    0
SMALL
NO_CHARGES


@<TRIPOS>ATOM
   1 C1            -0.0367     1.2873    -0.3912 C.ar    
   2 C2             0.0889     0.0042    -0.8925 C.ar    
   3 C3             1.3068    -0.6540    -0.8156 C.ar    
   4 C4             2.4016    -0.0195    -0.2325 C.ar    
   5 C5             2.2671     1.2682     0.2682 C.ar    
   6 C6             1.0501     1.9171     0.1876 C.ar    
   7 C7             0.9064     3.3151     0.7318 C.3     
   8 N8             3.6330    -0.6786    -0.1515 N.am    
   9 C9             4.7800     0.0208    -0.2596 C.2     
  10 O10            4.7464     1.2044    -0.5289 O.2     
  11 C11            7.3377     0.0719    -0.2759 C.ar    
  12 C12            8.6279    -0.6187    -0.2097 C.ar    
  13 C13            9.8127     0.1201    -0.4348 C.ar    
  14 C14            9.7264     1.5014    -0.7166 C.ar    
  15 C15            8.4962     2.1301    -0.7725 C.ar    
  16 C16            7.3193     1.4389    -0.5653 C.ar    
  17 C17            8.7087    -1.9860     0.0705 C.ar    
  18 C18            9.9301    -2.5931     0.1238 C.ar    
  19 C19           11.0972    -1.8688    -0.0972 C.ar    
  20 C20           11.0523    -0.5345    -0.3731 C.ar    
  21 O21           10.8565     2.2151    -0.9330 O.3     
  22 C22           10.7006     3.6077    -1.2130 C.3     
  23 C23           12.0764     4.2419    -1.4277 C.3     
  24 N24           12.6965     3.6707    -2.6307 N.3     
  25 C25           13.9066     4.4170    -3.0047 C.3     
  26 C26           14.5522     3.7538    -4.2243 C.3     
  27 O27           13.5999     3.6975    -5.2898 O.3     
  28 C28           12.4091     2.9774    -4.9602 C.3     
  29 C29           11.7418     3.6326    -3.7481 C.3     
  30 C30            1.8736     4.2487     0.0011 C.3     
  31 C31           -0.5290     3.8001     0.5193 C.3     
  32 C32            1.2288     3.3158     2.2274 C.3     
  33 Cl33          -1.2784    -0.7822    -1.6175 Cl      
  34 C34            6.0894    -0.6584    -0.0488 C.2     
  35 O35            6.1210    -1.8188     0.3117 O.2     
  36 O36            1.4323    -1.9156    -1.3074 O.3     
  37 C37            1.8206    -2.0425    -2.6767 C.3     
  38 H38           -0.9848     1.8004    -0.4560 H       
  39 H39            3.1139     1.7628     0.7207 H       
  40 H40            3.6612    -1.6388    -0.0175 H       
  41 H41            8.4547     3.1873    -0.9893 H       
  42 H42            6.3758     1.9620    -0.6165 H       
  43 H43            7.8097    -2.5587     0.2442 H       
  44 H44            9.9913    -3.6493     0.3408 H       
  45 H45           12.0523    -2.3708    -0.0498 H       
  46 H46           11.9659     0.0159    -0.5426 H       
  47 H47           10.0987     3.7322    -2.1131 H       
  48 H48           10.2036     4.0937    -0.3734 H       
  49 H49           11.9645     5.3188    -1.5531 H       
  50 H50           12.7083     4.0405    -0.5627 H       
  51 H51           13.6394     5.4452    -3.2483 H       
  52 H52           14.6100     4.4106    -2.1720 H       
  53 H53           15.4175     4.3365    -4.5400 H       
  54 H54           14.8680     2.7434    -3.9646 H       
  55 H55           11.7245     2.9985    -5.8082 H       
  56 H56           12.6626     1.9444    -4.7220 H       
  57 H57           10.8650     3.0537    -3.4581 H       
  58 H58           11.4399     4.6484    -4.0037 H       
  59 H59            1.6439     4.2482    -1.0644 H       
  60 H60            1.7697     5.2598     0.3948 H       
  61 H61            2.8963     3.9032     0.1526 H       
  62 H62           -1.2181     3.1349     1.0398 H       
  63 H63           -0.6330     4.8112     0.9129 H       
  64 H64           -0.7587     3.7996    -0.5463 H       
  65 H65            2.2515     2.9703     2.3788 H       
  66 H66            1.1249     4.3269     2.6210 H       
  67 H67            0.5398     2.6507     2.7479 H       
  68 H68            1.8834    -3.0982    -2.9403 H       
  69 H69            1.0813    -1.5531    -3.3109 H       
  70 H70            2.7932    -1.5728    -2.8236 H       
@<TRIPOS>BOND
   1    1    2 ar
   2    1    6 ar
   3    1   38 1
   4    2    3 ar
   5    2   33 1
   6    3    4 ar
   7    3   36 1
   8    4    5 ar
   9    4    8 1
  10    5    6 ar
  11    5   39 1
  12    6    7 1
  13    7   30 1
  14    7   31 1
  15    7   32 1
  16    8    9 am
  17    8   40 1
  18    9   10 2
  19    9   34 1
  20   11   12 ar
  21   11   34 1
  22   11   16 ar
  23   12   13 ar
  24   12   17 ar
  25   13   14 ar
  26   13   20 ar
  27   14   15 ar
  28   14   21 1
  29   15   16 ar
  30   15   41 1
  31   16   42 1
  32   17   18 ar
  33   17   43 1
  34   18   19 ar
  35   18   44 1
  36   19   20 ar
  37   19   45 1
  38   20   46 1
  39   21   22 1
  40   22   23 1
  41   22   47 1
  42   22   48 1
  43   23   24 1
  44   23   49 1
  45   23   50 1
  46   24   25 1
  47   24   29 1
  48   25   26 1
  49   25   51 1
  50   25   52 1
  51   26   27 1
  52   26   53 1
  53   26   54 1
  54   27   28 1
  55   28   29 1
  56   28   55 1
  57   28   56 1
  58   29   57 1
  59   29   58 1
  60   30   59 1
  61   30   60 1
  62   30   61 1
  63   31   62 1
  64   31   63 1
  65   31   64 1
  66   32   65 1
  67   32   66 1
  68   32   67 1
  69   34   35 2
  70   36   37 1
  71   37   68 1
  72   37   69 1
  73   37   70 1

#	End of record

