#	Name: ASD03091342
#	Creating user name:	WinNT
#	Creation time:	15. 06. 2019 20:30

#	Modifying user name:	WinNT
#	Modification time:	15. 06. 2019 20:30

#	Program:	/corina/corina34_cracker 3.40 0067  02.08.2006

@<TRIPOS>MOLECULE
ASD03091342
  48   52    0    0    0
SMALL
NO_CHARGES


@<TRIPOS>ATOM
   1 N1            -0.0163     1.3531     0.1045 N.am    
   2 C2             0.0021    -0.0050     0.0466 C.2     
   3 N3            -1.0720    -0.7327     0.0073 N.2     
   4 C4            -2.3097    -0.1761     0.0215 C.ar    
   5 C5            -2.4269     1.2304     0.0807 C.ar    
   6 C6            -1.1907     2.0254     0.1298 C.2     
   7 O7            -1.2224     3.2412     0.1817 O.2     
   8 C8            -3.4649    -0.9600    -0.0214 C.ar    
   9 C9            -4.6934    -0.3638    -0.0058 C.ar    
  10 C10           -4.8150     1.0245     0.0526 C.ar    
  11 C11           -3.6863     1.8253     0.0960 C.ar    
  12 N12           -6.0837     1.6107     0.0669 N.3     
  13 C13            1.2461     2.0952     0.1459 C.3     
  14 C14           -5.9909     3.0605     0.2766 C.3     
  15 C15           -6.8159     1.3121    -1.1718 C.3     
  16 C16           -8.2887     1.0742    -0.8735 C.3     
  17 C17           -9.0483     2.3432    -0.5435 C.3     
  18 N18           -8.2017     3.5353    -0.6944 N.3     
  19 C19           -7.3521     3.7026     0.4945 C.3     
  20 C20           -6.5735     2.4258    -2.1740 C.3     
  21 C21           -7.5295     3.5904    -1.9749 C.3     
  22 C22            2.1250     1.7486     1.3592 C.3     
  23 C23            3.3302     1.8169     0.4066 C.3     
  24 C24            2.3507     1.4812    -0.7304 C.3     
  25 H25            0.9598    -0.5042     0.0324 H       
  26 H26           -3.3867    -2.0362    -0.0671 H       
  27 H27           -5.5828    -0.9754    -0.0395 H       
  28 H28           -3.7814     2.9002     0.1412 H       
  29 H29            1.1125     3.1665    -0.0047 H       
  30 H30           -5.3665     3.2518     1.1493 H       
  31 H31           -5.5222     3.5142    -0.5967 H       
  32 H32           -6.4038     0.3958    -1.5944 H       
  33 H33           -8.7503     0.6068    -1.7433 H       
  34 H34           -8.3680     0.3897    -0.0290 H       
  35 H35           -9.9055     2.4286    -1.2113 H       
  36 H36           -9.4043     2.2875     0.4852 H       
  37 H37           -7.8370     3.2345     1.3511 H       
  38 H38           -7.2197     4.7659     0.6945 H       
  39 H39           -5.5502     2.7847    -2.0642 H       
  40 H40           -6.7023     2.0300    -3.1815 H       
  41 H41           -8.2773     3.5735    -2.7677 H       
  42 H42           -6.9689     4.5230    -2.0400 H       
  43 H43            2.1320     2.5210     2.1283 H       
  44 H44            1.9417     0.7519     1.7606 H       
  45 H45            3.7676     2.8121     0.3264 H       
  46 H46            4.0735     1.0401     0.5862 H       
  47 H47            2.2291     0.4114    -0.9003 H       
  48 H48            2.5398     2.0378    -1.6483 H       
@<TRIPOS>BOND
   1    1    2 1
   2    1   13 1
   3    1    6 am
   4    2    3 2
   5    2   25 1
   6    3    4 1
   7    4    5 ar
   8    4    8 ar
   9    5    6 1
  10    5   11 ar
  11    6    7 2
  12    8    9 ar
  13    8   26 1
  14    9   10 ar
  15    9   27 1
  16   10   11 ar
  17   10   12 1
  18   11   28 1
  19   12   15 1
  20   12   14 1
  21   13   22 1
  22   13   24 1
  23   13   29 1
  24   14   19 1
  25   14   30 1
  26   14   31 1
  27   15   16 1
  28   15   20 1
  29   15   32 1
  30   16   17 1
  31   16   33 1
  32   16   34 1
  33   17   18 1
  34   17   35 1
  35   17   36 1
  36   18   19 1
  37   18   21 1
  38   19   37 1
  39   19   38 1
  40   20   21 1
  41   20   39 1
  42   20   40 1
  43   21   41 1
  44   21   42 1
  45   22   23 1
  46   22   43 1
  47   22   44 1
  48   23   24 1
  49   23   45 1
  50   23   46 1
  51   24   47 1
  52   24   48 1

#	End of record

