#	Name: ASD03090264
#	Creating user name:	WinNT
#	Creation time:	15. 06. 2019 20:28

#	Modifying user name:	WinNT
#	Modification time:	15. 06. 2019 20:28

#	Program:	/corina/corina34_cracker 3.40 0067  02.08.2006

@<TRIPOS>MOLECULE
ASD03090264
  49   52    0    0    0
SMALL
NO_CHARGES


@<TRIPOS>ATOM
   1 C1             0.0399     1.3462     0.6220 C.ar    
   2 N2             0.1454     0.3154    -0.1947 N.ar    
   3 C3             1.2657    -0.3667    -0.3123 C.ar    
   4 C4             2.3914    -0.0163     0.4335 C.ar    
   5 C5             2.3105     1.0724     1.3083 C.ar    
   6 C6             1.1105     1.7567     1.3951 C.ar    
   7 C7             3.6496    -0.7836     0.3017 C.2     
   8 N8             7.1175    -1.0941    -0.1828 N.pl3   
   9 C9             7.9413    -2.2128    -0.3447 C.ar    
  10 C10            7.4406    -3.3655    -0.9355 C.ar    
  11 C11            8.2560    -4.4691    -1.0944 C.ar    
  12 C12            9.5715    -4.4268    -0.6647 C.ar    
  13 C13           10.0730    -3.2783    -0.0752 C.ar    
  14 C14            9.2632    -2.1706     0.0800 C.ar    
  15 N15            4.8484    -0.2771     0.0925 N.2     
  16 C16            5.7475    -1.2608     0.0286 C.2     
  17 N17            5.1365    -2.4109     0.1962 N.2     
  18 N18            3.7735    -2.1274     0.3806 N.pl3   
  19 C19            2.6981    -3.0963     0.6057 C.3     
  20 F20           10.3669    -5.5077    -0.8203 F       
  21 C21            2.4684    -3.2569     2.0865 C.2     
  22 N22            1.5198    -4.1035     2.5334 N.am    
  23 O23            3.1373    -2.6242     2.8759 O.2     
  24 C24            1.2966    -4.2595     3.9729 C.3     
  25 C25           -0.0879    -4.7268     4.4265 C.3     
  26 C26            1.1060    -5.6801     4.5083 C.3     
  27 C27            3.4993     1.4890     2.1355 C.3     
  28 C28           11.5052    -3.2354     0.3915 C.3     
  29 F29           11.7768    -1.9811     0.9484 F       
  30 F30           11.7116    -4.2282     1.3553 F       
  31 F31           12.3569    -3.4570    -0.6961 F       
  32 H32           -0.8964     1.8809     0.6844 H       
  33 H33            1.3133    -1.2048    -0.9918 H       
  34 H34            1.0112     2.6021     2.0598 H       
  35 H35            7.4980    -0.2026    -0.2173 H       
  36 H36            6.4143    -3.3992    -1.2702 H       
  37 H37            7.8670    -5.3658    -1.5538 H       
  38 H38            9.6548    -1.2750     0.5395 H       
  39 H39            1.7830    -2.7399     0.1327 H       
  40 H40            2.9790    -4.0575     0.1753 H       
  41 H41            0.9848    -4.6095     1.9020 H       
  42 H42            1.8211    -3.5474     4.6099 H       
  43 H43           -0.4740    -4.3223     5.3622 H       
  44 H44           -0.8327    -4.9180     3.6539 H       
  45 H45            1.1467    -6.4985     3.7895 H       
  46 H46            1.5053    -5.9028     5.4978 H       
  47 H47            4.0903     2.2180     1.5809 H       
  48 H48            3.1545     1.9350     3.0684 H       
  49 H49            4.1131     0.6155     2.3554 H       
@<TRIPOS>BOND
   1    1    2 ar
   2    1    6 ar
   3    1   32 1
   4    2    3 ar
   5    3    4 ar
   6    3   33 1
   7    4    5 ar
   8    4    7 1
   9    5    6 ar
  10    5   27 1
  11    6   34 1
  12    7   15 2
  13    7   18 1
  14    8    9 1
  15    8   16 1
  16    8   35 1
  17    9   10 ar
  18    9   14 ar
  19   10   11 ar
  20   10   36 1
  21   11   12 ar
  22   11   37 1
  23   12   13 ar
  24   12   20 1
  25   13   14 ar
  26   13   28 1
  27   14   38 1
  28   15   16 1
  29   16   17 2
  30   17   18 1
  31   18   19 1
  32   19   21 1
  33   19   39 1
  34   19   40 1
  35   21   22 am
  36   21   23 2
  37   22   24 1
  38   22   41 1
  39   24   25 1
  40   24   26 1
  41   24   42 1
  42   25   26 1
  43   25   43 1
  44   25   44 1
  45   26   45 1
  46   26   46 1
  47   27   47 1
  48   27   48 1
  49   27   49 1
  50   28   29 1
  51   28   30 1
  52   28   31 1

#	End of record

