#	Name: ASD02198748
#	Creating user name:	WinNT
#	Creation time:	15. 06. 2019 20:20

#	Modifying user name:	WinNT
#	Modification time:	15. 06. 2019 20:20

#	Program:	/corina/corina34_cracker 3.40 0067  02.08.2006

@<TRIPOS>MOLECULE
ASD02198748
  49   53    0    0    0
SMALL
NO_CHARGES


@<TRIPOS>ATOM
   1 C1            -0.0433     1.5017    -0.1149 C.2     
   2 C2            -0.0730     0.1619     0.0976 C.2     
   3 N3             1.0713    -0.5396     0.2600 N.pl3   
   4 N4             2.2358    -0.0048     0.2259 N.2     
   5 C5             2.4072     1.2848     0.0276 C.2     
   6 C6             1.2214     2.1358    -0.1604 C.2     
   7 C7             0.9799    -1.9187     0.4765 C.ar    
   8 C8             1.5817    -2.4907     1.5966 C.ar    
   9 C9             1.4888    -3.8561     1.8081 C.ar    
  10 C10            0.7974    -4.6517     0.9055 C.ar    
  11 C11            0.1989    -4.0799    -0.2102 C.ar    
  12 C12            0.2847    -2.7187    -0.4209 C.ar    
  13 C13            3.7641     1.8672    -0.0056 C.2     
  14 N14            4.3055     2.6074    -1.0188 N.pl3   
  15 N15            5.6075     2.9590    -0.6416 N.2     
  16 C16            5.8519     2.4594     0.5436 C.2     
  17 C17            4.7203     1.7716     0.9817 C.2     
  18 C18            3.6719     2.9521    -2.2195 C.ar    
  19 C19            3.8053     4.2353    -2.7332 C.ar    
  20 C20            3.1793     4.5721    -3.9173 C.ar    
  21 C21            2.4203     3.6330    -4.5913 C.ar    
  22 C22            2.2851     2.3544    -4.0821 C.ar    
  23 C23            2.9137     2.0096    -2.9016 C.ar    
  24 O24            1.3242     3.3390    -0.3483 O.2     
  25 N25            0.7033    -6.0343     1.1194 N.pl3   
  26 C26            0.0619    -6.9415     0.3162 C.2     
  27 C27            1.2353    -6.7286     2.1586 C.2     
  28 N28            0.9365    -7.9907     2.0116 N.2     
  29 C29            0.2175    -8.1495     0.8906 C.2     
  30 O30            2.2587    -1.7097     2.4791 O.3     
  31 C31            2.8498    -2.3638     3.6037 C.3     
  32 H32           -0.9548     2.0652    -0.2494 H       
  33 H33           -1.0228    -0.3506     0.1380 H       
  34 H34            1.9545    -4.3016     2.6748 H       
  35 H35           -0.3381    -4.7012    -0.9117 H       
  36 H36           -0.1818    -2.2765    -1.2888 H       
  37 H37            6.7757     2.5655     1.0929 H       
  38 H38            4.6150     1.2517     1.9225 H       
  39 H39            4.3976     4.9693    -2.2071 H       
  40 H40            3.2823     5.5701    -4.3171 H       
  41 H41            1.9317     3.8988    -5.5170 H       
  42 H42            1.6911     1.6234    -4.6105 H       
  43 H43            2.8078     1.0109    -2.5045 H       
  44 H44           -0.4671    -6.7282    -0.6009 H       
  45 H45            1.8097    -6.3071     2.9703 H       
  46 H46           -0.1694    -9.0846     0.5135 H       
  47 H47            3.3581    -1.6276     4.2264 H       
  48 H48            2.0725    -2.8581     4.1864 H       
  49 H49            3.5698    -3.1046     3.2560 H       
@<TRIPOS>BOND
   1    1    2 2
   2    1    6 1
   3    1   32 1
   4    2    3 1
   5    2   33 1
   6    3    4 1
   7    3    7 1
   8    4    5 2
   9    5    6 1
  10    5   13 1
  11    6   24 2
  12    7    8 ar
  13    7   12 ar
  14    8    9 ar
  15    8   30 1
  16    9   10 ar
  17    9   34 1
  18   10   11 ar
  19   10   25 1
  20   11   12 ar
  21   11   35 1
  22   12   36 1
  23   13   14 1
  24   13   17 2
  25   14   15 1
  26   14   18 1
  27   15   16 2
  28   16   17 1
  29   16   37 1
  30   17   38 1
  31   18   19 ar
  32   18   23 ar
  33   19   20 ar
  34   19   39 1
  35   20   21 ar
  36   20   40 1
  37   21   22 ar
  38   21   41 1
  39   22   23 ar
  40   22   42 1
  41   23   43 1
  42   25   27 1
  43   25   26 1
  44   26   29 2
  45   26   44 1
  46   27   28 2
  47   27   45 1
  48   28   29 1
  49   29   46 1
  50   30   31 1
  51   31   47 1
  52   31   48 1
  53   31   49 1

#	End of record

