#	Name: ASD00170731
#	Creating user name:	WinNT
#	Creation time:	15. 06. 2019 18:32

#	Modifying user name:	WinNT
#	Modification time:	15. 06. 2019 18:32

#	Program:	/corina/corina34_cracker 3.40 0067  02.08.2006

@<TRIPOS>MOLECULE
ASD00170731
  60   63    0    0    0
SMALL
NO_CHARGES


@<TRIPOS>ATOM
   1 C1            -0.0206     1.2084    -0.0128 C.2     
   2 O2             0.5543     0.7691     0.9666 O.2     
   3 C3             0.5757     1.0437    -1.3560 C.ar    
   4 C4             1.8352     0.4578    -1.4965 C.ar    
   5 C5             2.3864     0.3069    -2.7525 C.ar    
   6 C6             1.6919     0.7363    -3.8729 C.ar    
   7 C7             0.4425     1.3179    -3.7387 C.ar    
   8 C8            -0.1209     1.4682    -2.4887 C.ar    
   9 Cl9            2.3915     0.5445    -5.4501 Cl      
  10 Cl10           3.9523    -0.4212    -2.9299 Cl      
  11 C11           -5.0635     1.5991     0.2976 C.3     
  12 C12           -3.6147     2.0459     0.2777 C.2     
  13 C13           -2.5823     1.2088     0.1208 C.2     
  14 C14           -2.7629    -0.2911    -0.0546 C.3     
  15 C15           -4.1832    -0.6564     0.3887 C.3     
  16 N16           -5.1437     0.2431    -0.2654 N.3     
  17 C17           -1.3039     1.8938     0.1385 C.2     
  18 C18           -1.4207     3.2504     0.3123 C.2     
  19 S19           -3.0571     3.6999     0.4533 S.3     
  20 C20           -6.5105    -0.2866    -0.1697 C.3     
  21 C21           -7.4398     0.5350    -1.0655 C.3     
  22 C22           -8.8633    -0.0167    -0.9658 C.3     
  23 C23           -9.7926     0.8048    -1.8616 C.3     
  24 C24          -11.2162     0.2531    -1.7619 C.3     
  25 O25          -12.0841     1.0205    -2.5986 O.3     
  26 C26          -13.3938     0.6588    -2.6255 C.ar    
  27 C27          -14.2922     1.3603    -3.4162 C.ar    
  28 C28          -15.6230     0.9904    -3.4422 C.ar    
  29 C29          -16.0598    -0.0778    -2.6807 C.ar    
  30 C30          -15.1663    -0.7787    -1.8918 C.ar    
  31 C31          -13.8334    -0.4163    -1.8668 C.ar    
  32 N32          -17.4862    -0.4715    -2.7096 N.pl3   
  33 O33          -18.2742     0.1454    -3.4039 O.2     
  34 O34          -17.8721    -1.4123    -2.0392 O.2     
  35 N35           -0.3578     4.1291     0.3662 N.pl3   
  36 H36            2.3771     0.1238    -0.6240 H       
  37 H37           -0.0938     1.6508    -4.6150 H       
  38 H38           -1.0974     1.9179    -2.3860 H       
  39 H39           -5.4300     1.5915     1.3240 H       
  40 H40           -5.6650     2.2810    -0.3035 H       
  41 H41           -2.6244    -0.5583    -1.1023 H       
  42 H42           -2.0373    -0.8234     0.5604 H       
  43 H43           -4.3989    -1.6868     0.1059 H       
  44 H44           -4.2651    -0.5508     1.4705 H       
  45 H45           -6.5203    -1.3274    -0.4934 H       
  46 H46           -6.8529    -0.2242     0.8633 H       
  47 H47           -7.4299     1.5757    -0.7417 H       
  48 H48           -7.0974     0.4725    -2.0984 H       
  49 H49           -8.8732    -1.0575    -1.2896 H       
  50 H50           -9.2057     0.0457     0.0672 H       
  51 H51           -9.7828     1.8456    -1.5378 H       
  52 H52           -9.4502     0.7424    -2.8945 H       
  53 H53          -11.2260    -0.7876    -2.0857 H       
  54 H54          -11.5585     0.3156    -0.7290 H       
  55 H55          -13.9517     2.1952    -4.0106 H       
  56 H56          -16.3228     1.5362    -4.0575 H       
  57 H57          -15.5100    -1.6125    -1.2976 H       
  58 H58          -13.1352    -0.9666    -1.2536 H       
  59 H59            0.5515     3.7915     0.3584 H       
  60 H60           -0.5202     5.0844     0.4117 H       
@<TRIPOS>BOND
   1    1    2 2
   2    1    3 1
   3    1   17 1
   4    3    4 ar
   5    3    8 ar
   6    4    5 ar
   7    4   36 1
   8    5    6 ar
   9    5   10 1
  10    6    7 ar
  11    6    9 1
  12    7    8 ar
  13    7   37 1
  14    8   38 1
  15   11   12 1
  16   11   16 1
  17   11   39 1
  18   11   40 1
  19   12   13 2
  20   12   19 1
  21   13   14 1
  22   13   17 1
  23   14   15 1
  24   14   41 1
  25   14   42 1
  26   15   16 1
  27   15   43 1
  28   15   44 1
  29   16   20 1
  30   17   18 2
  31   18   19 1
  32   18   35 1
  33   20   21 1
  34   20   45 1
  35   20   46 1
  36   21   22 1
  37   21   47 1
  38   21   48 1
  39   22   23 1
  40   22   49 1
  41   22   50 1
  42   23   24 1
  43   23   51 1
  44   23   52 1
  45   24   25 1
  46   24   53 1
  47   24   54 1
  48   25   26 1
  49   26   27 ar
  50   26   31 ar
  51   27   28 ar
  52   27   55 1
  53   28   29 ar
  54   28   56 1
  55   29   30 ar
  56   29   32 1
  57   30   31 ar
  58   30   57 1
  59   31   58 1
  60   32   33 2
  61   32   34 2
  62   35   59 1
  63   35   60 1

#	End of record

