#	Name: ASD01870474
#	Creating user name:	WinNT
#	Creation time:	15. 06. 2019 19:39

#	Modifying user name:	WinNT
#	Modification time:	15. 06. 2019 19:39

#	Program:	/corina/corina34_cracker 3.40 0067  02.08.2006

@<TRIPOS>MOLECULE
ASD01870474
  39   42    0    0    0
SMALL
NO_CHARGES


@<TRIPOS>ATOM
   1 C1            -0.0304     1.3965    -0.2314 C.ar    
   2 C2            -0.0275     0.0162    -0.1039 C.ar    
   3 C3             1.1516    -0.6624     0.1411 C.ar    
   4 C4             2.3474     0.0281     0.2631 C.ar    
   5 C5             2.3598     1.4079     0.1380 C.ar    
   6 C6             1.1574     2.0999    -0.1123 C.ar    
   7 C7             3.4143     2.4414     0.2066 C.2     
   8 N8             2.8482     3.6454     0.0079 N.am    
   9 C9             1.5222     3.5303    -0.1875 C.2     
  10 O10            0.7533     4.4482    -0.3910 O.2     
  11 O11            4.5944     2.2377     0.4091 O.2     
  12 C12            3.5487     4.8615     0.0046 C.ar    
  13 C13            4.0788     5.3540    -1.1801 C.ar    
  14 C14            4.7683     6.5499    -1.1837 C.ar    
  15 C15            4.9321     7.2612    -0.0018 C.ar    
  16 C16            4.4017     6.7693     1.1837 C.ar    
  17 C17            3.7067     5.5752     1.1861 C.ar    
  18 Cl18           3.0373     4.9632     2.6663 Cl      
  19 N19            5.6320     8.4732    -0.0056 N.am    
  20 C20            6.4044     8.8087     1.0468 C.2     
  21 C21            7.2176    10.0287     1.0004 C.2     
  22 O22            6.4272     8.0994     2.0355 O.2     
  23 C23            8.0426    10.4946     1.9810 C.2     
  24 N24            8.5927    11.6292     1.5366 N.2     
  25 C25            8.1441    11.8771     0.3352 C.2     
  26 O26            7.2988    10.9068    -0.0263 O.3     
  27 C27            8.2885     9.8494     3.3205 C.3     
  28 H28           -0.9540     1.9211    -0.4272 H       
  29 H29           -0.9529    -0.5329    -0.1963 H       
  30 H30            1.1410    -1.7379     0.2385 H       
  31 H31            3.2655    -0.5073     0.4553 H       
  32 H32            3.9520     4.8012    -2.0992 H       
  33 H33            5.1808     6.9325    -2.1056 H       
  34 H34            4.5289     7.3221     2.1027 H       
  35 H35            5.5612     9.0718    -0.7655 H       
  36 H36            8.4158    12.7287    -0.2710 H       
  37 H37            9.1275     9.1579     3.2422 H       
  38 H38            8.5193    10.6187     4.0575 H       
  39 H39            7.3967     9.3049     3.6308 H       
@<TRIPOS>BOND
   1    1    2 ar
   2    1    6 ar
   3    1   28 1
   4    2    3 ar
   5    2   29 1
   6    3    4 ar
   7    3   30 1
   8    4    5 ar
   9    4   31 1
  10    5    7 1
  11    5    6 ar
  12    6    9 1
  13    7    8 am
  14    7   11 2
  15    8    9 am
  16    8   12 1
  17    9   10 2
  18   12   13 ar
  19   12   17 ar
  20   13   14 ar
  21   13   32 1
  22   14   15 ar
  23   14   33 1
  24   15   16 ar
  25   15   19 1
  26   16   17 ar
  27   16   34 1
  28   17   18 1
  29   19   20 am
  30   19   35 1
  31   20   21 1
  32   20   22 2
  33   21   23 2
  34   21   26 1
  35   23   24 1
  36   23   27 1
  37   24   25 2
  38   25   26 1
  39   25   36 1
  40   27   37 1
  41   27   38 1
  42   27   39 1

#	End of record

