#	Name: ASD09800003
#	Creating user name:	WinNT
#	Creation time:	15. 06. 2019 21:24

#	Modifying user name:	WinNT
#	Modification time:	15. 06. 2019 21:24

#	Program:	/corina/corina34_cracker 3.40 0067  02.08.2006

@<TRIPOS>MOLECULE
ASD09800003
  53   56    0    0    0
SMALL
NO_CHARGES


@<TRIPOS>ATOM
   1 C1             3.2205     5.0340     4.3427 C.ar    
   2 C2             3.4497     4.2922     5.4847 C.ar    
   3 C3             2.4791     3.4264     5.9550 C.ar    
   4 C4             1.2769     3.3006     5.2839 C.ar    
   5 C5             1.0413     4.0402     4.1412 C.ar    
   6 C6             2.0137     4.9103     3.6665 C.ar    
   7 N7             1.7780     5.6613     2.5095 N.am    
   8 C8             0.5499     6.1620     2.2696 C.2     
   9 N9             0.3431     6.9566     1.2009 N.am    
  10 O10           -0.3715     5.8967     3.0174 O.2     
  11 C11           -0.9499     7.3937     0.8940 C.ar    
  12 C12           -1.1473     8.6715     0.3842 C.ar    
  13 C13           -2.4201     9.1051     0.0808 C.ar    
  14 C14           -3.5112     8.2595     0.2861 C.ar    
  15 C15           -3.3097     6.9770     0.7981 C.ar    
  16 C16           -2.0339     6.5472     1.0942 C.ar    
  17 C17           -4.8795     8.7222    -0.0382 C.2     
  18 C18           -5.2752     9.3855    -1.1928 C.2     
  19 N19           -6.6329     9.6174    -1.0594 N.pl3   
  20 C20           -7.0077     9.1094     0.1236 C.2     
  21 N21           -5.9728     8.5752     0.7245 N.2     
  22 C22           -8.4093     9.1425     0.6763 C.3     
  23 C23           -8.9003     7.7120     0.9077 C.3     
  24 C24           -8.4165     9.9050     2.0028 C.3     
  25 C25           -4.6258     9.8267    -2.3627 C.2     
  26 N26           -5.3315    10.4476    -3.2959 N.2     
  27 C27           -6.6379    10.6644    -3.1548 C.2     
  28 N28           -7.2989    10.2812    -2.0960 N.2     
  29 N29           -3.2729     9.6152    -2.5339 N.pl3   
  30 C30            0.2225     2.3552     5.7993 C.3     
  31 F31            0.6881     1.7242     6.9578 F       
  32 F32           -0.9422     3.0718     6.0945 F       
  33 F33           -0.0572     1.3921     4.8239 F       
  34 H34            3.9772     5.7130     3.9783 H       
  35 H35            4.3879     4.3880     6.0109 H       
  36 H36            2.6609     2.8470     6.8481 H       
  37 H37            0.1022     3.9412     3.6173 H       
  38 H38            2.4985     5.8215     1.8802 H       
  39 H39            1.0908     7.2255     0.6445 H       
  40 H40           -0.3026     9.3256     0.2259 H       
  41 H41           -2.5729    10.0983    -0.3150 H       
  42 H42           -4.1521     6.3204     0.9580 H       
  43 H43           -1.8773     5.5547     1.4901 H       
  44 H44           -9.0682     9.6424    -0.0337 H       
  45 H45           -8.2414     7.2121     1.6177 H       
  46 H46           -9.9140     7.7360     1.3075 H       
  47 H47           -8.8951     7.1688    -0.0373 H       
  48 H48           -9.4302     9.9290     2.4026 H       
  49 H49           -7.7576     9.4051     2.7128 H       
  50 H50           -8.0667    10.9241     1.8380 H       
  51 H51           -7.1694    11.1752    -3.9440 H       
  52 H52           -2.8157     8.9450    -2.0022 H       
  53 H53           -2.7791    10.1369    -3.1858 H       
@<TRIPOS>BOND
   1    1    2 ar
   2    1    6 ar
   3    1   34 1
   4    2    3 ar
   5    2   35 1
   6    3    4 ar
   7    3   36 1
   8    4    5 ar
   9    4   30 1
  10    5    6 ar
  11    5   37 1
  12    6    7 1
  13    7    8 am
  14    7   38 1
  15    8    9 am
  16    8   10 2
  17    9   11 1
  18    9   39 1
  19   11   12 ar
  20   11   16 ar
  21   12   13 ar
  22   12   40 1
  23   13   14 ar
  24   13   41 1
  25   14   15 ar
  26   14   17 1
  27   15   16 ar
  28   15   42 1
  29   16   43 1
  30   17   18 2
  31   17   21 1
  32   18   19 1
  33   18   25 1
  34   19   20 1
  35   19   28 1
  36   20   21 2
  37   20   22 1
  38   22   23 1
  39   22   24 1
  40   22   44 1
  41   23   45 1
  42   23   46 1
  43   23   47 1
  44   24   48 1
  45   24   49 1
  46   24   50 1
  47   25   26 2
  48   25   29 1
  49   26   27 1
  50   27   28 2
  51   27   51 1
  52   29   52 1
  53   29   53 1
  54   30   31 1
  55   30   32 1
  56   30   33 1

#	End of record

