#	Name: ASD01810467
#	Creating user name:	WinNT
#	Creation time:	15. 06. 2019 19:24

#	Modifying user name:	WinNT
#	Modification time:	15. 06. 2019 19:24

#	Program:	/corina/corina34_cracker 3.40 0067  02.08.2006

@<TRIPOS>MOLECULE
ASD01810467
  52   55    0    0    0
SMALL
NO_CHARGES


@<TRIPOS>ATOM
   1 C1            -0.0171     1.4125     0.0098 C.ar    
   2 C2             0.0021    -0.0041     0.0020 C.ar    
   3 C3             1.1965     2.1281     0.0021 C.ar    
   4 C4             2.3791     1.4659    -0.0133 C.ar    
   5 C5             2.4203     0.0584    -0.0217 C.ar    
   6 C6             1.2391    -0.6809    -0.0140 C.ar    
   7 C7             3.7180    -0.6357    -0.0394 C.2     
   8 C8             1.1797     3.6350     0.0104 C.3     
   9 N9             0.9469     4.1146     1.3792 N.3     
  10 O10            3.7573    -1.8505    -0.0467 O.2     
  11 O11            4.8628     0.0757    -0.0474 O.3     
  12 C12            1.1581     5.5659     1.4718 C.3     
  13 C13            0.8293     6.0371     2.8904 C.3     
  14 N14            1.6805     5.3215     3.8511 N.3     
  15 C15            1.4693     3.8702     3.7585 C.3     
  16 C16            1.7981     3.3990     2.3399 C.3     
  17 C17           -1.2110    -0.7106     0.0099 C.ar    
  18 C18           -2.3895    -0.0273     0.0249 C.ar    
  19 C19           -2.4090     1.3649     0.0320 C.ar    
  20 C20           -1.2509     2.0823     0.0194 C.ar    
  21 C21            1.4589     5.7780     5.1540 C.ar    
  22 C22            2.1676     5.2274     6.2138 C.ar    
  23 O23            1.2787    -2.0346    -0.0216 O.3     
  24 C24            0.5338     6.7867     5.3895 C.ar    
  25 C25            0.3168     7.2364     6.6773 C.ar    
  26 C26            1.0211     6.6826     7.7330 C.ar    
  27 C27            1.9474     5.6802     7.4999 C.ar    
  28 F28            0.8079     7.1246     8.9917 F       
  29 C29            1.3102    -2.6898     1.2480 C.3     
  30 H30            3.3028     2.0256    -0.0194 H       
  31 H31            2.1379     4.0110    -0.3483 H       
  32 H32            0.3822     3.9931    -0.6407 H       
  33 H33            5.6903    -0.4243    -0.0589 H       
  34 H34            2.1986     5.7972     1.2438 H       
  35 H35            0.5078     6.0742     0.7599 H       
  36 H36            1.0131     7.1086     2.9694 H       
  37 H37           -0.2184     5.8304     3.1085 H       
  38 H38            2.1196     3.3618     4.4704 H       
  39 H39            0.4288     3.6389     3.9865 H       
  40 H40            1.6143     2.3275     2.2609 H       
  41 H41            2.8458     3.6057     2.1218 H       
  42 H42           -1.2099    -1.7905     0.0038 H       
  43 H43           -3.3215    -0.5730     0.0309 H       
  44 H44           -3.3562     1.8837     0.0432 H       
  45 H45           -1.2818     3.1619     0.0255 H       
  46 H46            2.8902     4.4455     6.0325 H       
  47 H47           -0.0153     7.2194     4.5663 H       
  48 H48           -0.4025     8.0208     6.8609 H       
  49 H49            2.4956     5.2496     8.3249 H       
  50 H50            0.4176    -2.4261     1.8152 H       
  51 H51            1.3404    -3.7692     1.0991 H       
  52 H52            2.1967    -2.3740     1.7979 H       
@<TRIPOS>BOND
   1    1    2 ar
   2    1    3 ar
   3    1   20 ar
   4    2   17 ar
   5    2    6 ar
   6    3    4 ar
   7    3    8 1
   8    4    5 ar
   9    4   30 1
  10    5    6 ar
  11    5    7 1
  12    6   23 1
  13    7   10 2
  14    7   11 1
  15    8    9 1
  16    8   31 1
  17    8   32 1
  18    9   12 1
  19    9   16 1
  20   11   33 1
  21   12   13 1
  22   12   34 1
  23   12   35 1
  24   13   14 1
  25   13   36 1
  26   13   37 1
  27   14   15 1
  28   14   21 1
  29   15   16 1
  30   15   38 1
  31   15   39 1
  32   16   40 1
  33   16   41 1
  34   17   18 ar
  35   17   42 1
  36   18   19 ar
  37   18   43 1
  38   19   20 ar
  39   19   44 1
  40   20   45 1
  41   21   22 ar
  42   21   24 ar
  43   22   27 ar
  44   22   46 1
  45   23   29 1
  46   24   25 ar
  47   24   47 1
  48   25   26 ar
  49   25   48 1
  50   26   27 ar
  51   26   28 1
  52   27   49 1
  53   29   50 1
  54   29   51 1
  55   29   52 1

#	End of record

