#	Name: ASD05313293
#	Creating user name:	WinNT
#	Creation time:	15. 06. 2019 20:59

#	Modifying user name:	WinNT
#	Modification time:	15. 06. 2019 20:59

#	Program:	/corina/corina34_cracker 3.40 0067  02.08.2006

@<TRIPOS>MOLECULE
ASD05313293
  41   44    0    0    0
SMALL
NO_CHARGES


@<TRIPOS>ATOM
   1 C1            -0.0736     0.8185     1.0261 C.2     
   2 C2             0.1131    -0.6200     0.5970 C.3     
   3 N3             0.9269     1.7278     1.0524 N.pl3   
   4 N4             1.4551    -0.7212    -0.0051 N.am    
   5 C5             2.5698    -0.0410     0.6718 C.3     
   6 C6             2.3149     1.4705     0.6636 C.3     
   7 N7            -1.1750     1.3866     1.4266 N.2     
   8 C8            -0.9337     2.6681     1.7260 C.2     
   9 C9             0.3893     2.9094     1.5002 C.2     
  10 C10            1.1027     4.1864     1.7007 C.ar    
  11 N11            0.4301     5.2431     2.1431 N.ar    
  12 C12            1.0398     6.4001     2.3333 C.ar    
  13 C13            2.3969     6.5027     2.0653 C.ar    
  14 C14            3.0697     5.3806     1.6045 C.ar    
  15 N15            2.4035     4.2511     1.4397 N.ar    
  16 C16            1.6547    -1.4168    -1.1421 C.2     
  17 O17            2.7463    -1.4073    -1.6768 O.2     
  18 C18            0.5464    -2.1911    -1.7387 C.ar    
  19 C19            0.3152    -2.1387    -3.1158 C.ar    
  20 C20           -0.7226    -2.8652    -3.6660 C.ar    
  21 C21           -1.5316    -3.6423    -2.8568 C.ar    
  22 C22           -1.3078    -3.6978    -1.4924 C.ar    
  23 C23           -0.2708    -2.9827    -0.9301 C.ar    
  24 C24           -0.9744    -2.8106    -5.1508 C.3     
  25 F25           -2.0691    -3.6218    -5.4682 F       
  26 F26           -1.2460    -1.4916    -5.5296 F       
  27 F27            0.1582    -3.2679    -5.8329 F       
  28 Cl28           1.3292    -1.1628    -4.1321 Cl      
  29 H29            0.0438    -1.2782     1.4631 H       
  30 H30           -0.6453    -0.8901    -0.1378 H       
  31 H31            2.6406    -0.3931     1.7009 H       
  32 H32            3.5007    -0.2563     0.1471 H       
  33 H33            2.4915     1.8642    -0.3373 H       
  34 H34            2.9870     1.9568     1.3706 H       
  35 H35           -1.6580     3.3840     2.0855 H       
  36 H36            0.4877     7.2559     2.6928 H       
  37 H37            2.9187     7.4368     2.2119 H       
  38 H38            4.1264     5.4284     1.3864 H       
  39 H39           -2.3420    -4.2082    -3.2919 H       
  40 H40           -1.9440    -4.3061    -0.8666 H       
  41 H41           -0.0946    -3.0314     0.1344 H       
@<TRIPOS>BOND
   1    1    2 1
   2    1    3 1
   3    1    7 2
   4    2    4 1
   5    2   29 1
   6    2   30 1
   7    3    6 1
   8    3    9 1
   9    4    5 1
  10    4   16 am
  11    5    6 1
  12    5   31 1
  13    5   32 1
  14    6   33 1
  15    6   34 1
  16    7    8 1
  17    8    9 2
  18    8   35 1
  19    9   10 1
  20   10   11 ar
  21   10   15 ar
  22   11   12 ar
  23   12   13 ar
  24   12   36 1
  25   13   14 ar
  26   13   37 1
  27   14   15 ar
  28   14   38 1
  29   16   17 2
  30   16   18 1
  31   18   19 ar
  32   18   23 ar
  33   19   20 ar
  34   19   28 1
  35   20   21 ar
  36   20   24 1
  37   21   22 ar
  38   21   39 1
  39   22   23 ar
  40   22   40 1
  41   23   41 1
  42   24   25 1
  43   24   26 1
  44   24   27 1

#	End of record

