#	Name: ASD01883271
#	Creating user name:	WinNT
#	Creation time:	15. 06. 2019 19:46

#	Modifying user name:	WinNT
#	Modification time:	15. 06. 2019 19:46

#	Program:	/corina/corina34_cracker 3.40 0067  02.08.2006

@<TRIPOS>MOLECULE
ASD01883271
  55   57    0    0    0
SMALL
NO_CHARGES


@<TRIPOS>ATOM
   1 N1            -0.0160     1.3414     0.0089 N.am    
   2 C2             0.0022    -0.0042     0.0279 C.2     
   3 C3            -1.2157    -0.7274     0.0371 C.2     
   4 C4            -2.4262    -0.0110     0.0261 C.2     
   5 C5            -2.3786     1.3972     0.0063 C.2     
   6 C6            -1.1852     2.0325     0.0035 C.2     
   7 O7             1.0659    -0.6001     0.0367 O.2     
   8 C8            -1.2147    -2.1593     0.0569 C.1     
   9 N9            -1.2139    -3.2952     0.0725 N.1     
  10 C10            1.2515     2.0760    -0.0000 C.3     
  11 C11            1.6944     2.3113    -1.4455 C.3     
  12 C12            3.0181     3.0785    -1.4548 C.3     
  13 C13            3.5240     3.2052    -2.8932 C.3     
  14 C14            2.8031     4.4738    -0.8650 C.3     
  15 C15           -3.7215    -0.7207     0.0347 C.ar    
  16 C16           -4.5820    -0.5936     1.1286 C.ar    
  17 C17           -5.7922    -1.2583     1.1325 C.ar    
  18 C18           -6.1538    -2.0552     0.0451 C.ar    
  19 C19           -5.2970    -2.1814    -1.0423 C.ar    
  20 C20           -4.0910    -1.5156    -1.0534 C.ar    
  21 N21           -7.3762    -2.7263     0.0497 N.3     
  22 C22           -7.4057    -3.7602     1.0945 C.3     
  23 C23           -8.7825    -4.4295     1.1038 C.3     
  24 O24           -9.0562    -4.9636    -0.1944 O.3     
  25 C25           -9.0362    -3.9838    -1.2360 C.3     
  26 C26           -7.6618    -3.3099    -1.2690 C.3     
  27 O27           -6.6315    -1.1369     2.1959 O.3     
  28 C28           -6.1970    -0.3055     3.2738 C.3     
  29 H29           -3.2949     1.9688    -0.0028 H       
  30 H30           -1.1610     3.1122    -0.0114 H       
  31 H31            1.1190     3.0353     0.5002 H       
  32 H32            2.0115     1.4954     0.5229 H       
  33 H33            1.8268     1.3520    -1.9457 H       
  34 H34            0.9343     2.8919    -1.9684 H       
  35 H35            3.7539     2.5407    -0.8569 H       
  36 H36            2.7882     3.7430    -3.4911 H       
  37 H37            4.4671     3.7517    -2.8998 H       
  38 H38            3.6772     2.2112    -3.3133 H       
  39 H39            2.4427     4.3835     0.1597 H       
  40 H40            3.7462     5.0203    -0.8716 H       
  41 H41            2.0673     5.0115    -1.4629 H       
  42 H42           -4.3007     0.0231     1.9695 H       
  43 H43           -5.5794    -2.7990    -1.8821 H       
  44 H44           -3.4271    -1.6152    -1.8993 H       
  45 H45           -6.6391    -4.5073     0.8888 H       
  46 H46           -7.2171    -3.3020     2.0654 H       
  47 H47           -8.7906    -5.2352     1.8379 H       
  48 H48           -9.5435    -3.6931     1.3622 H       
  49 H49           -9.2277    -4.4671    -2.1940 H       
  50 H50           -9.8045    -3.2344    -1.0456 H       
  51 H51           -7.6603    -2.5231    -2.0233 H       
  52 H52           -6.8994    -4.0499    -1.5124 H       
  53 H53           -6.0380     0.7092     2.9088 H       
  54 H54           -6.9575    -0.2959     4.0546 H       
  55 H55           -5.2639    -0.6958     3.6803 H       
@<TRIPOS>BOND
   1    1    2 am
   2    1   10 1
   3    1    6 1
   4    2    3 1
   5    2    7 2
   6    3    4 2
   7    3    8 1
   8    4    5 1
   9    4   15 1
  10    5    6 2
  11    5   29 1
  12    6   30 1
  13    8    9 3
  14   10   11 1
  15   10   31 1
  16   10   32 1
  17   11   12 1
  18   11   33 1
  19   11   34 1
  20   12   13 1
  21   12   14 1
  22   12   35 1
  23   13   36 1
  24   13   37 1
  25   13   38 1
  26   14   39 1
  27   14   40 1
  28   14   41 1
  29   15   16 ar
  30   15   20 ar
  31   16   17 ar
  32   16   42 1
  33   17   18 ar
  34   17   27 1
  35   18   19 ar
  36   18   21 1
  37   19   20 ar
  38   19   43 1
  39   20   44 1
  40   21   22 1
  41   21   26 1
  42   22   23 1
  43   22   45 1
  44   22   46 1
  45   23   24 1
  46   23   47 1
  47   23   48 1
  48   24   25 1
  49   25   26 1
  50   25   49 1
  51   25   50 1
  52   26   51 1
  53   26   52 1
  54   27   28 1
  55   28   53 1
  56   28   54 1
  57   28   55 1

#	End of record

