#	Name: ASD03240586
#	Creating user name:	WinNT
#	Creation time:	15. 06. 2019 20:35

#	Modifying user name:	WinNT
#	Modification time:	15. 06. 2019 20:35

#	Program:	/corina/corina34_cracker 3.40 0067  02.08.2006

@<TRIPOS>MOLECULE
ASD03240586
  61   67    0    0    0
SMALL
NO_CHARGES


@<TRIPOS>ATOM
   1 C1            -0.0166     1.3755     0.0096 C.ar    
   2 C2             0.0021    -0.0041     0.0020 C.ar    
   3 N3             1.1422    -0.6683    -0.0054 N.ar    
   4 C4             2.3145    -0.0482    -0.0053 C.ar    
   5 C5             2.3702     1.3442    -0.0124 C.ar    
   6 C6             1.1860     2.0698     0.0019 C.ar    
   7 N7             3.4819    -0.8059     0.0229 N.pl3   
   8 C8             4.3585    -0.7196     1.1009 C.ar    
   9 C9             4.9949     0.4885     1.4051 C.ar    
  10 C10            4.7643     1.6830     0.5632 C.2     
  11 N11            3.5938     2.0276    -0.0512 N.pl3   
  12 C12            4.6036    -1.8394     1.8845 C.ar    
  13 C13            5.4625    -1.7541     2.9636 C.ar    
  14 C14            6.0834    -0.5562     3.2728 C.ar    
  15 C15            5.8552     0.5646     2.5001 C.ar    
  16 N16            5.6763     2.5928     0.2869 N.2     
  17 C17            5.1466     3.5392    -0.5046 C.2     
  18 C18            3.8220     3.2026    -0.7366 C.2     
  19 C19            2.8495     3.9525    -1.5547 C.ar    
  20 C20            2.7505     5.3406    -1.4306 C.ar    
  21 C21            2.0274     3.2784    -2.4612 C.ar    
  22 C22            1.1208     3.9859    -3.2226 C.ar    
  23 C23            1.0242     5.3600    -3.0903 C.ar    
  24 C24            1.8393     6.0349    -2.1985 C.ar    
  25 C25            5.8500     4.7279    -1.0339 C.ar    
  26 C26            0.0310     6.1258    -3.9258 C.3     
  27 N27           -1.0476     5.2775    -4.4501 N.3     
  28 C28           -0.4702     7.4169    -3.2576 C.3     
  29 C29           -0.3833     8.0753    -4.6446 C.3     
  30 C30            0.6838     7.0214    -4.9920 C.3     
  31 C31            5.5394     5.2138    -2.3064 C.ar    
  32 C32            6.8203     5.3676    -0.2588 C.ar    
  33 C33            7.4700     6.4657    -0.7467 C.ar    
  34 C34            7.1635     6.9496    -2.0225 C.ar    
  35 C35            6.1885     6.3116    -2.7959 C.ar    
  36 C36            7.8441     8.1007    -2.5347 C.1     
  37 N37            8.3840     9.0138    -2.9411 N.1     
  38 H38           -0.9556     1.9091     0.0170 H       
  39 H39           -0.9306    -0.5486     0.0025 H       
  40 H40            1.2002     3.1497     0.0068 H       
  41 H41            3.6865    -1.4001    -0.7160 H       
  42 H42            4.1224    -2.7776     1.6507 H       
  43 H43            5.6503    -2.6279     3.5701 H       
  44 H44            6.7490    -0.4984     4.1214 H       
  45 H45            6.3409     1.4980     2.7433 H       
  46 H46            3.3858     5.8685    -0.7348 H       
  47 H47            2.1020     2.2061    -2.5658 H       
  48 H48            0.4849     3.4662    -3.9240 H       
  49 H49            1.7583     7.1074    -2.1002 H       
  50 H50           -0.6745     4.4555    -4.9009 H       
  51 H51           -1.6972     5.0261    -3.7201 H       
  52 H52           -1.4872     7.3428    -2.8724 H       
  53 H53            0.2289     7.8330    -2.5322 H       
  54 H54           -1.2969     7.9795    -5.2314 H       
  55 H55            0.0005     9.0952    -4.6206 H       
  56 H56            1.6990     7.3288    -4.7410 H       
  57 H57            0.5974     6.6301    -6.0056 H       
  58 H58            4.7862     4.7212    -2.9033 H       
  59 H59            7.0567     4.9940     0.7266 H       
  60 H60            8.2199     6.9604    -0.1472 H       
  61 H61            5.9515     6.6844    -3.7814 H       
@<TRIPOS>BOND
   1    1    2 ar
   2    1    6 ar
   3    1   38 1
   4    2    3 ar
   5    2   39 1
   6    3    4 ar
   7    4    5 ar
   8    4    7 1
   9    5    6 ar
  10    5   11 1
  11    6   40 1
  12    7    8 1
  13    7   41 1
  14    8    9 ar
  15    8   12 ar
  16    9   10 1
  17    9   15 ar
  18   10   11 1
  19   10   16 2
  20   11   18 1
  21   12   13 ar
  22   12   42 1
  23   13   14 ar
  24   13   43 1
  25   14   15 ar
  26   14   44 1
  27   15   45 1
  28   16   17 1
  29   17   18 2
  30   17   25 1
  31   18   19 1
  32   19   20 ar
  33   19   21 ar
  34   20   24 ar
  35   20   46 1
  36   21   22 ar
  37   21   47 1
  38   22   23 ar
  39   22   48 1
  40   23   24 ar
  41   23   26 1
  42   24   49 1
  43   25   32 ar
  44   25   31 ar
  45   26   27 1
  46   26   28 1
  47   26   30 1
  48   27   50 1
  49   27   51 1
  50   28   29 1
  51   28   52 1
  52   28   53 1
  53   29   30 1
  54   29   54 1
  55   29   55 1
  56   30   56 1
  57   30   57 1
  58   31   35 ar
  59   31   58 1
  60   32   33 ar
  61   32   59 1
  62   33   34 ar
  63   33   60 1
  64   34   35 ar
  65   34   36 1
  66   35   61 1
  67   36   37 3

#	End of record

