#	Name: ASD01200159
#	Creating user name:	WinNT
#	Creation time:	15. 06. 2019 19:08

#	Modifying user name:	WinNT
#	Modification time:	15. 06. 2019 19:08

#	Program:	/corina/corina34_cracker 3.40 0067  02.08.2006

@<TRIPOS>MOLECULE
ASD01200159
  49   52    0    0    0
SMALL
NO_CHARGES


@<TRIPOS>ATOM
   1 C1             0.0951     1.6105     0.1186 C.ar    
   2 C2             0.0290     0.2287     0.1320 C.ar    
   3 C3             1.1904    -0.5246     0.0841 C.ar    
   4 C4             2.4132     0.1018     0.0232 C.ar    
   5 C5             2.4915     1.4966     0.0092 C.ar    
   6 C6             3.8323    -0.4057    -0.0379 C.3     
   7 N7             4.6917     0.7827    -0.0860 N.am    
   8 C8             3.9149     1.8794    -0.0587 C.2     
   9 O9             4.3262     3.0229    -0.0861 O.2     
  10 O10            4.1279    -1.1786     1.1271 O.3     
  11 C11            6.1551     0.7752    -0.1524 C.3     
  12 C12            6.5922     0.6377    -1.5881 C.ar    
  13 C13            3.9177    -0.4808     2.3563 C.3     
  14 C14            4.1427    -1.4209     3.5125 C.2     
  15 O15            4.4524    -2.5748     3.3043 O.2     
  16 N16            3.9995    -0.9794     4.7778 N.am    
  17 C17            4.3100    -1.8173     5.8477 C.ar    
  18 N18            4.8505    -3.0075     5.6248 N.ar    
  19 C19            5.1435    -3.7997     6.6420 C.ar    
  20 C20            4.8870    -3.3892     7.9366 C.ar    
  21 N21            4.3480    -2.2030     8.1632 N.ar    
  22 C22            4.0585    -1.4043     7.1534 C.ar    
  23 C23            6.7936     1.7664    -2.3604 C.ar    
  24 C24            7.1944     1.6403    -3.6773 C.ar    
  25 C25            7.3943     0.3855    -4.2218 C.ar    
  26 C26            7.1938    -0.7432    -3.4493 C.ar    
  27 C27            6.7971    -0.6169    -2.1311 C.ar    
  28 C28            1.3168     2.2489     0.0576 C.ar    
  29 C29           -1.3104    -0.4588     0.1992 C.3     
  30 H30           -0.8142     2.1923     0.1516 H       
  31 H31            1.1357    -1.6032     0.0951 H       
  32 H32            3.9762    -1.0086    -0.9345 H       
  33 H33            6.5422     1.7080     0.2575 H       
  34 H34            6.5408    -0.0639     0.4267 H       
  35 H35            4.6164     0.3530     2.4249 H       
  36 H36            2.8961    -0.1024     2.3892 H       
  37 H37            3.6806    -0.0785     4.9439 H       
  38 H38            5.5838    -4.7692     6.4609 H       
  39 H39            5.1269    -4.0390     8.7652 H       
  40 H40            3.6184    -0.4357     7.3389 H       
  41 H41            6.6374     2.7467    -1.9349 H       
  42 H42            7.3511     2.5221    -4.2809 H       
  43 H43            7.7068     0.2870    -5.2509 H       
  44 H44            7.3496    -1.7235    -3.8748 H       
  45 H45            6.6405    -1.4987    -1.5275 H       
  46 H46            1.3640     3.3278     0.0470 H       
  47 H47           -1.6809    -0.6322    -0.8111 H       
  48 H48           -1.2036    -1.4127     0.7158 H       
  49 H49           -2.0153     0.1712     0.7417 H       
@<TRIPOS>BOND
   1    1    2 ar
   2    1   28 ar
   3    1   30 1
   4    2    3 ar
   5    2   29 1
   6    3    4 ar
   7    3   31 1
   8    4    5 ar
   9    4    6 1
  10    5   28 ar
  11    5    8 1
  12    6    7 1
  13    6   10 1
  14    6   32 1
  15    7    8 am
  16    7   11 1
  17    8    9 2
  18   10   13 1
  19   11   12 1
  20   11   33 1
  21   11   34 1
  22   12   23 ar
  23   12   27 ar
  24   13   14 1
  25   13   35 1
  26   13   36 1
  27   14   15 2
  28   14   16 am
  29   16   17 1
  30   16   37 1
  31   17   18 ar
  32   17   22 ar
  33   18   19 ar
  34   19   20 ar
  35   19   38 1
  36   20   21 ar
  37   20   39 1
  38   21   22 ar
  39   22   40 1
  40   23   24 ar
  41   23   41 1
  42   24   25 ar
  43   24   42 1
  44   25   26 ar
  45   25   43 1
  46   26   27 ar
  47   26   44 1
  48   27   45 1
  49   28   46 1
  50   29   47 1
  51   29   48 1
  52   29   49 1

#	End of record

