#	Name: ASD04590801
#	Creating user name:	WinNT
#	Creation time:	15. 06. 2019 20:51

#	Modifying user name:	WinNT
#	Modification time:	15. 06. 2019 20:51

#	Program:	/corina/corina34_cracker 3.40 0067  02.08.2006

@<TRIPOS>MOLECULE
ASD04590801
  26   27    0    0    0
SMALL
NO_CHARGES


@<TRIPOS>ATOM
   1 O1            -0.0173     1.4256     0.0099 O.3     
   2 C2             0.0021    -0.0041     0.0020 C.3     
   3 C3             0.9389    -0.5068     1.0650 C.2     
   4 N4             1.8486     0.2818     1.6503 N.am    
   5 C5             1.9767     1.7025     1.3336 C.3     
   6 C6             1.2919     2.0032     0.0005 C.3     
   7 C7             2.1079     1.4018    -1.1454 C.3     
   8 C8             1.4426     1.7532    -2.4783 C.3     
   9 N9             1.3652     3.2131    -2.6177 N.3     
  10 C10            0.5438     3.8062    -1.5548 C.3     
  11 C11            1.1819     3.5166    -0.1939 C.3     
  12 O12            0.8676    -1.6689     1.4048 O.2     
  13 H13           -1.0020    -0.3811     0.1962 H       
  14 H14            0.3380    -0.3565    -0.9732 H       
  15 H15            2.4458    -0.1047     2.3097 H       
  16 H16            1.5089     2.2926     2.1217 H       
  17 H17            3.0326     1.9644     1.2655 H       
  18 H18            3.1189     1.8087    -1.1248 H       
  19 H19            2.1487     0.3183    -1.0335 H       
  20 H20            2.0310     1.3407    -3.2979 H       
  21 H21            0.4376     1.3320    -2.5048 H       
  22 H22            2.2866     3.6240    -2.6346 H       
  23 H23            0.4799     4.8841    -1.7040 H       
  24 H24           -0.4569     3.3753    -1.5859 H       
  25 H25            0.5624     3.9410     0.5961 H       
  26 H26            2.1762     3.9616    -0.1561 H       
@<TRIPOS>BOND
   1    1    2 1
   2    1    6 1
   3    2    3 1
   4    2   13 1
   5    2   14 1
   6    3    4 am
   7    3   12 2
   8    4    5 1
   9    4   15 1
  10    5    6 1
  11    5   16 1
  12    5   17 1
  13    6    7 1
  14    6   11 1
  15    7    8 1
  16    7   18 1
  17    7   19 1
  18    8    9 1
  19    8   20 1
  20    8   21 1
  21    9   10 1
  22    9   22 1
  23   10   11 1
  24   10   23 1
  25   10   24 1
  26   11   25 1
  27   11   26 1

#	End of record

