#	Name: ASD01180093
#	Creating user name:	WinNT
#	Creation time:	15. 06. 2019 19:06

#	Modifying user name:	WinNT
#	Modification time:	15. 06. 2019 19:06

#	Program:	/corina/corina34_cracker 3.40 0067  02.08.2006

@<TRIPOS>MOLECULE
ASD01180093
  72   76    0    0    0
SMALL
NO_CHARGES


@<TRIPOS>ATOM
   1 S1            -5.0137     6.1409     0.9313 S.o2    
   2 O2            -3.5632     6.1647    -5.4227 O.2     
   3 O3            -5.8619     5.1387     1.4746 O.2     
   4 O4            -3.6796     6.3013     1.3936 O.2     
   5 O5            -0.6091     1.3462    -9.8658 O.2     
   6 N6            -1.4481     6.8388    -5.4988 N.am    
   7 N7            -2.4307     6.1037    -3.5129 N.am    
   8 N8             1.5026     2.0336    -9.8932 N.am    
   9 N9             3.1519     0.5655   -10.8885 N.2     
  10 N10            1.1407    -0.1578   -10.8963 N.2     
  11 N11            3.0847    -0.7008   -11.4927 N.pl3   
  12 N12            1.8496    -1.0698   -11.4609 N.2     
  13 C13            3.3063     8.1172    -2.6798 C.3     
  14 C14            3.6646     6.9672    -1.7363 C.3     
  15 C15            4.4472     8.3340    -3.6759 C.3     
  16 C16            4.9468     7.3120    -0.9761 C.3     
  17 C17            5.7294     8.6787    -2.9157 C.3     
  18 C18            6.0877     7.5288    -1.9722 C.3     
  19 C19            2.0433     7.7776    -3.4286 C.ar    
  20 C20            0.9298     8.5883    -3.3066 C.ar    
  21 C21            2.0025     6.6594    -4.2410 C.ar    
  22 C22           -0.2292     8.2799    -3.9916 C.ar    
  23 C23            0.8465     6.3454    -4.9286 C.ar    
  24 C24           -0.2753     7.1544    -4.8038 C.ar    
  25 C25           -1.5126     7.0268    -6.9502 C.3     
  26 C26           -2.5184     6.3620    -4.8328 C.2     
  27 C27           -1.0636     5.7648    -7.6406 C.ar    
  28 C28           -1.9894     4.7866    -7.9579 C.ar    
  29 C29            0.2716     5.5919    -7.9595 C.ar    
  30 C30           -3.5697     5.7154    -2.7987 C.ar    
  31 C31           -1.5850     3.6290    -8.5899 C.ar    
  32 C32            0.6893     4.4389    -8.5915 C.ar    
  33 C33           -0.2386     3.4456    -8.9093 C.ar    
  34 C34           -3.7096     6.0728    -1.4644 C.ar    
  35 C35           -4.8351     5.6878    -0.7621 C.ar    
  36 C36           -4.5652     4.9764    -3.4247 C.ar    
  37 C37           -5.8215     4.9470    -1.3864 C.ar    
  38 C38           -5.6878     4.5942    -2.7170 C.ar    
  39 C39            0.2019     2.2076    -9.5861 C.2     
  40 C40           -5.8677     7.7406     0.8842 C.3     
  41 C41            1.9193     0.8625   -10.5333 C.2     
  42 H42            3.1517     9.0276    -2.1007 H       
  43 H43            4.6018     7.4236    -4.2550 H       
  44 H44            4.1919     9.1532    -4.3481 H       
  45 H45            2.8518     6.8128    -1.0266 H       
  46 H46            3.8192     6.0569    -2.3154 H       
  47 H47            6.5422     8.8332    -3.6253 H       
  48 H48            5.5748     9.5891    -2.3365 H       
  49 H49            4.7922     8.2224    -0.3969 H       
  50 H50            5.2021     6.4928    -0.3039 H       
  51 H51            7.0012     7.7744    -1.4306 H       
  52 H52            6.2423     6.6184    -2.5513 H       
  53 H53            0.9662     9.4633    -2.6745 H       
  54 H54            2.8753     6.0307    -4.3377 H       
  55 H55           -1.0988     8.9130    -3.8953 H       
  56 H56            0.8151     5.4718    -5.5627 H       
  57 H57           -2.5377     7.2555    -7.2418 H       
  58 H58           -0.8603     7.8509    -7.2392 H       
  59 H59           -1.5780     6.1871    -3.0580 H       
  60 H60           -3.0307     4.9296    -7.7099 H       
  61 H61            0.9883     6.3613    -7.7134 H       
  62 H62           -2.3085     2.8660    -8.8367 H       
  63 H63            1.7318     4.3050    -8.8396 H       
  64 H64           -2.9392     6.6509    -0.9759 H       
  65 H65           -4.4615     4.7009    -4.4638 H       
  66 H66           -6.7002     4.6466    -0.8350 H       
  67 H67           -6.4622     4.0196    -3.2032 H       
  68 H68           -6.0216     8.1004     1.9015 H       
  69 H69           -5.2622     8.4596     0.3322 H       
  70 H70           -6.8323     7.6231     0.3905 H       
  71 H71            2.1497     2.7209    -9.6700 H       
  72 H72            3.8270    -1.2026   -11.8641 H       
@<TRIPOS>BOND
   1    1    3 2
   2    1    4 2
   3    1   35 1
   4    1   40 1
   5    2   26 2
   6    5   39 2
   7    6   24 1
   8    6   25 1
   9    6   26 am
  10    7   26 am
  11    7   30 1
  12    7   59 1
  13    8   39 am
  14    8   41 1
  15    8   71 1
  16    9   11 1
  17    9   41 2
  18   10   12 2
  19   10   41 1
  20   11   12 1
  21   11   72 1
  22   13   14 1
  23   13   15 1
  24   13   19 1
  25   13   42 1
  26   14   16 1
  27   14   45 1
  28   14   46 1
  29   15   17 1
  30   15   43 1
  31   15   44 1
  32   16   18 1
  33   16   49 1
  34   16   50 1
  35   17   18 1
  36   17   47 1
  37   17   48 1
  38   18   51 1
  39   18   52 1
  40   19   20 ar
  41   19   21 ar
  42   20   22 ar
  43   20   53 1
  44   21   23 ar
  45   21   54 1
  46   22   24 ar
  47   22   55 1
  48   23   24 ar
  49   23   56 1
  50   25   27 1
  51   25   57 1
  52   25   58 1
  53   27   28 ar
  54   27   29 ar
  55   28   31 ar
  56   28   60 1
  57   29   32 ar
  58   29   61 1
  59   30   34 ar
  60   30   36 ar
  61   31   33 ar
  62   31   62 1
  63   32   33 ar
  64   32   63 1
  65   33   39 1
  66   34   35 ar
  67   34   64 1
  68   35   37 ar
  69   36   38 ar
  70   36   65 1
  71   37   38 ar
  72   37   66 1
  73   38   67 1
  74   40   68 1
  75   40   69 1
  76   40   70 1

#	End of record

