#	Name: ASD01100003
#	Creating user name:	WinNT
#	Creation time:	15. 06. 2019 18:58

#	Modifying user name:	WinNT
#	Modification time:	15. 06. 2019 18:58

#	Program:	/corina/corina34_cracker 3.40 0067  02.08.2006

@<TRIPOS>MOLECULE
ASD01100003
  34   35    0    0    0
SMALL
NO_CHARGES


@<TRIPOS>ATOM
   1 C1            -0.0527     1.4143    -0.3837 C.ar    
   2 C2             0.0072     0.0366    -0.4955 C.ar    
   3 C3             1.2328    -0.6052    -0.4844 C.ar    
   4 C4             2.3966     0.1302    -0.3616 C.ar    
   5 C5             2.3361     1.5068    -0.2500 C.ar    
   6 C6             1.1117     2.1486    -0.2610 C.ar    
   7 C7             3.6053     2.3080    -0.1156 C.3     
   8 C8             3.7124     3.2761    -1.2656 C.2     
   9 N9             4.4187     2.9424    -2.3639 N.am    
  10 C10            3.5819     3.0833     1.2032 C.3     
  11 C11            3.3518     2.1114     2.3622 C.3     
  12 C12            4.9193     3.8006     1.3970 C.3     
  13 Cl13          -1.4550    -0.8865    -0.6492 Cl      
  14 O14            3.1629     4.3555    -1.2028 O.2     
  15 C15            4.4293     3.7881    -3.4669 C.2     
  16 N16            5.0733     3.5628    -4.5691 N.2     
  17 C17            4.9719     4.4751    -5.5176 C.2     
  18 C18            4.2057     5.5210    -5.2017 C.2     
  19 S19            3.5888     5.2734    -3.5702 S.3     
  20 H20           -1.0089     1.9162    -0.3968 H       
  21 H21            1.2801    -1.6807    -0.5713 H       
  22 H22            3.3533    -0.3707    -0.3526 H       
  23 H23            1.0651     3.2241    -0.1737 H       
  24 H24            4.4627     1.6350    -0.1262 H       
  25 H25            4.9197     2.1120    -2.3845 H       
  26 H26            2.7762     3.8171     1.1790 H       
  27 H27            3.3350     2.6637     3.3017 H       
  28 H28            2.3989     1.6004     2.2241 H       
  29 H29            4.1574     1.3776     2.3864 H       
  30 H30            5.0423     4.5560     0.6209 H       
  31 H31            4.9363     4.2795     2.3760 H       
  32 H32            5.7322     3.0774     1.3322 H       
  33 H33            5.4687     4.3825    -6.4720 H       
  34 H34            3.9975     6.3696    -5.8366 H       
@<TRIPOS>BOND
   1    1    2 ar
   2    1    6 ar
   3    1   20 1
   4    2    3 ar
   5    2   13 1
   6    3    4 ar
   7    3   21 1
   8    4    5 ar
   9    4   22 1
  10    5    6 ar
  11    5    7 1
  12    6   23 1
  13    7    8 1
  14    7   10 1
  15    7   24 1
  16    8    9 am
  17    8   14 2
  18    9   15 1
  19    9   25 1
  20   10   11 1
  21   10   12 1
  22   10   26 1
  23   11   27 1
  24   11   28 1
  25   11   29 1
  26   12   30 1
  27   12   31 1
  28   12   32 1
  29   15   16 2
  30   15   19 1
  31   16   17 1
  32   17   18 2
  33   17   33 1
  34   18   19 1
  35   18   34 1

#	End of record

