#	Name: ASD01913821
#	Creating user name:	WinNT
#	Creation time:	15. 06. 2019 20:02

#	Modifying user name:	WinNT
#	Modification time:	15. 06. 2019 20:02

#	Program:	/corina/corina34_cracker 3.40 0067  02.08.2006

@<TRIPOS>MOLECULE
ASD01913821
  42   45    0    0    0
SMALL
NO_CHARGES


@<TRIPOS>ATOM
   1 C1            -0.0173     1.4278     0.0099 C.ar    
   2 C2             0.0021    -0.0041     0.0020 C.1     
   3 C3             0.0180    -1.1779    -0.0044 C.1     
   4 C4             0.0374    -2.6098    -0.0123 C.ar    
   5 C5            -1.1615    -3.3383    -0.0048 C.ar    
   6 C6             0.1560    -5.3344    -0.0290 C.ar    
   7 N7             1.2706    -4.6189    -0.0412 N.ar    
   8 C8             1.2501    -3.3022    -0.0335 C.ar    
   9 C9            -1.0911    -4.7169    -0.0133 C.ar    
  10 C10            1.1812     2.1463     0.0023 C.ar    
  11 C11            1.1547     3.5252     0.0095 C.ar    
  12 C12           -0.0549     4.1972     0.0242 C.ar    
  13 C13           -1.2458     3.4925     0.0322 C.ar    
  14 C14           -1.2350     2.1134     0.0194 C.ar    
  15 N15            0.2331    -6.7251    -0.0385 N.am    
  16 C16           -0.8066    -7.5799    -0.1236 C.2     
  17 O17           -0.4360    -8.8607     0.0686 O.3     
  18 C18            0.9975    -8.9455    -0.2691 C.3     
  19 C19            1.4591    -7.5244     0.0359 C.3     
  20 C20            1.0813    -9.2608    -1.7623 C.3     
  21 C21            2.4814    -8.9400    -2.2841 C.3     
  22 C22            2.6976    -7.4311    -2.1825 C.3     
  23 C23            2.6044    -6.9807    -0.7486 C.3     
  24 H24            1.5190    -9.6851     0.3385 H       
  25 H25            1.7671    -7.5127     1.0814 H       
  26 O26           -1.9494    -7.2336    -0.3483 O.2     
  27 H27           -2.1160    -2.8331     0.0078 H       
  28 H28            2.1798    -2.7527    -0.0440 H       
  29 H29           -1.9938    -5.3097    -0.0076 H       
  30 H30            2.1260     1.6231    -0.0088 H       
  31 H31            2.0801     4.0818     0.0040 H       
  32 H32           -0.0696     5.2771     0.0297 H       
  33 H33           -2.1860     4.0237     0.0440 H       
  34 H34           -2.1652     1.5647     0.0257 H       
  35 H35            0.8691   -10.3181    -1.9216 H       
  36 H36            0.3479    -8.6606    -2.3008 H       
  37 H37            3.2261    -9.4592    -1.6809 H       
  38 H38            2.5666    -9.2541    -3.3244 H       
  39 H39            3.6834    -7.1818    -2.5749 H       
  40 H40            1.9367    -6.9183    -2.7709 H       
  41 H41            2.5352    -5.8929    -0.7373 H       
  42 H42            3.5274    -7.2631    -0.2424 H       
@<TRIPOS>BOND
   1    1    2 1
   2    1   10 ar
   3    1   14 ar
   4    2    3 3
   5    3    4 1
   6    4    5 ar
   7    4    8 ar
   8    5    9 ar
   9    5   27 1
  10    6    7 ar
  11    6   15 1
  12    6    9 ar
  13    7    8 ar
  14    8   28 1
  15    9   29 1
  16   10   11 ar
  17   10   30 1
  18   11   12 ar
  19   11   31 1
  20   12   13 ar
  21   12   32 1
  22   13   14 ar
  23   13   33 1
  24   14   34 1
  25   15   16 am
  26   15   19 1
  27   16   17 1
  28   16   26 2
  29   17   18 1
  30   18   19 1
  31   18   20 1
  32   18   24 1
  33   19   25 1
  34   19   23 1
  35   20   21 1
  36   20   35 1
  37   20   36 1
  38   21   22 1
  39   21   37 1
  40   21   38 1
  41   22   23 1
  42   22   39 1
  43   22   40 1
  44   23   41 1
  45   23   42 1

#	End of record

