#	Name: ASD01900903
#	Creating user name:	WinNT
#	Creation time:	15. 06. 2019 19:52

#	Modifying user name:	WinNT
#	Modification time:	15. 06. 2019 19:52

#	Program:	/corina/corina34_cracker 3.40 0067  02.08.2006

@<TRIPOS>MOLECULE
ASD01900903
  35   37    0    0    0
SMALL
NO_CHARGES


@<TRIPOS>ATOM
   1 C1            -0.0167     1.3776     0.0096 C.ar    
   2 C2             0.0021    -0.0041     0.0020 C.ar    
   3 C3            -1.1851    -0.7123     0.0100 C.ar    
   4 C4            -2.3933    -0.0386     0.0256 C.ar    
   5 C5            -2.4139     1.3446     0.0332 C.ar    
   6 C6            -1.2252     2.0536     0.0306 C.ar    
   7 F7            -1.2439     3.4045     0.0385 F       
   8 C8             1.2780     2.1488     0.0014 C.3     
   9 S9             1.7812     2.4674    -1.7121 S.3     
  10 C10            3.2872     3.3623    -1.5230 C.2     
  11 C11            4.0540     3.8299    -2.5183 C.2     
  12 N12            5.1435     4.4756    -2.1436 N.2     
  13 C13            5.3539     4.5875    -0.8687 C.2     
  14 S14            4.0419     3.8038     0.0071 S.3     
  15 N15            6.4408     5.2294    -0.2854 N.am    
  16 C16            7.3830     5.7999    -1.0622 C.2     
  17 O17            7.2825     5.7533    -2.2726 O.2     
  18 C18            8.5406     6.4835    -0.4409 C.ar    
  19 N19            8.6448     6.5311     0.8815 N.ar    
  20 C20            9.6567     7.1282     1.4728 C.ar    
  21 C21           10.6578     7.7340     0.7309 C.ar    
  22 C22           10.5883     7.7078    -0.6535 C.ar    
  23 C23            9.5142     7.0665    -1.2495 C.ar    
  24 Cl24          -3.8836    -0.9290     0.0351 Cl      
  25 H25            0.9447    -0.5310    -0.0105 H       
  26 H26           -1.1694    -1.7922     0.0037 H       
  27 H27           -3.3569     1.8709     0.0454 H       
  28 H28            1.1397     3.0966     0.5217 H       
  29 H29            2.0505     1.5673     0.5048 H       
  30 H30            3.7979     3.6878    -3.5578 H       
  31 H31            6.5210     5.2666     0.6806 H       
  32 H32            9.7077     7.1467     2.5514 H       
  33 H33           11.4840     8.2222     1.2262 H       
  34 H34           11.3561     8.1732    -1.2539 H       
  35 H35            9.4285     7.0266    -2.3254 H       
@<TRIPOS>BOND
   1    1    2 ar
   2    1    8 1
   3    1    6 ar
   4    2    3 ar
   5    2   25 1
   6    3    4 ar
   7    3   26 1
   8    4    5 ar
   9    4   24 1
  10    5    6 ar
  11    5   27 1
  12    6    7 1
  13    8    9 1
  14    8   28 1
  15    8   29 1
  16    9   10 1
  17   10   11 2
  18   10   14 1
  19   11   12 1
  20   11   30 1
  21   12   13 2
  22   13   14 1
  23   13   15 1
  24   15   16 am
  25   15   31 1
  26   16   17 2
  27   16   18 1
  28   18   19 ar
  29   18   23 ar
  30   19   20 ar
  31   20   21 ar
  32   20   32 1
  33   21   22 ar
  34   21   33 1
  35   22   23 ar
  36   22   34 1
  37   23   35 1

#	End of record

