#	Name: ASD01900630
#	Creating user name:	WinNT
#	Creation time:	15. 06. 2019 19:52

#	Modifying user name:	WinNT
#	Modification time:	15. 06. 2019 19:52

#	Program:	/corina/corina34_cracker 3.40 0067  02.08.2006

@<TRIPOS>MOLECULE
ASD01900630
  37   40    0    0    0
SMALL
NO_CHARGES


@<TRIPOS>ATOM
   1 C1            -0.0167     1.3807     0.0096 C.ar    
   2 C2             0.0021    -0.0041     0.0020 C.ar    
   3 C3            -1.1752    -0.7249     0.0119 C.ar    
   4 C4            -2.3951    -0.0617     0.0299 C.ar    
   5 C5            -2.4092     1.3398     0.0332 C.ar    
   6 O6            -3.5537    -0.7544     0.0516 O.3     
   7 C7            -4.7322    -0.1706    -0.2259 C.2     
   8 C8            -4.8987     1.1729    -0.2440 C.2     
   9 C9            -3.7272     2.0240     0.0389 C.2     
  10 N10           -3.8429     3.3070     0.2804 N.2     
  11 C11           -5.8945    -1.0311    -0.5242 C.ar    
  12 N12           -7.0727    -0.4655    -0.8019 N.ar    
  13 C13           -8.1453    -1.1653    -1.0755 C.ar    
  14 C14           -8.0910    -2.5702    -1.0858 C.ar    
  15 C15           -6.8569    -3.2107    -0.7958 C.ar    
  16 C16           -5.7389    -2.4084    -0.5157 C.ar    
  17 C17           -9.2193    -3.3528    -1.3734 C.ar    
  18 C18           -9.1141    -4.7111    -1.3702 C.ar    
  19 C19           -7.9030    -5.3388    -1.0851 C.ar    
  20 C20           -6.7861    -4.6123    -0.8017 C.ar    
  21 O21           -5.1212     3.9161     0.2748 O.3     
  22 C22           -1.2204     2.0574     0.0305 C.ar    
  23 C23            1.2788     2.1505     0.0014 C.3     
  24 F24            2.3534     1.2548    -0.0137 F       
  25 F25            1.3320     2.9618    -1.1371 F       
  26 F26            1.3538     2.9496     1.1473 F       
  27 H27            0.9477    -0.5255    -0.0122 H       
  28 H28           -1.1475    -1.8045     0.0053 H       
  29 H29           -5.8626     1.6096    -0.4596 H       
  30 H30           -9.0752    -0.6613    -1.2938 H       
  31 H31           -4.7816    -2.8546    -0.2904 H       
  32 H32          -10.1653    -2.8816    -1.5956 H       
  33 H33           -9.9840    -5.3116    -1.5918 H       
  34 H34           -7.8490    -6.4175    -1.0894 H       
  35 H35           -5.8535    -5.1110    -0.5827 H       
  36 H36           -5.1059     4.8644     0.4633 H       
  37 H37           -1.2371     3.1373     0.0368 H       
@<TRIPOS>BOND
   1    1    2 ar
   2    1   23 1
   3    1   22 ar
   4    2    3 ar
   5    2   27 1
   6    3    4 ar
   7    3   28 1
   8    4    5 ar
   9    4    6 1
  10    5   22 ar
  11    5    9 1
  12    6    7 1
  13    7    8 2
  14    7   11 1
  15    8    9 1
  16    8   29 1
  17    9   10 2
  18   10   21 1
  19   11   12 ar
  20   11   16 ar
  21   12   13 ar
  22   13   14 ar
  23   13   30 1
  24   14   15 ar
  25   14   17 ar
  26   15   16 ar
  27   15   20 ar
  28   16   31 1
  29   17   18 ar
  30   17   32 1
  31   18   19 ar
  32   18   33 1
  33   19   20 ar
  34   19   34 1
  35   20   35 1
  36   21   36 1
  37   22   37 1
  38   23   24 1
  39   23   25 1
  40   23   26 1

#	End of record

