#	Name: ASD02038107
#	Creating user name:	WinNT
#	Creation time:	15. 06. 2019 20:16

#	Modifying user name:	WinNT
#	Modification time:	15. 06. 2019 20:16

#	Program:	/corina/corina34_cracker 3.40 0067  02.08.2006

@<TRIPOS>MOLECULE
ASD02038107
  48   50    0    0    0
SMALL
NO_CHARGES


@<TRIPOS>ATOM
   1 C1            -0.1692     1.1586     0.1080 C.ar    
   2 C2            -0.0903    -0.2187    -0.0057 C.ar    
   3 C3             0.9888     1.9158     0.1992 C.ar    
   4 C4             2.2248     1.2951     0.1760 C.ar    
   5 C5             2.3042    -0.0863     0.0619 C.ar    
   6 C6             1.1422    -0.8419    -0.0288 C.ar    
   7 N7             3.5522    -0.7160     0.0378 N.3     
   8 C8             6.8885    -3.1319     0.9756 C.3     
   9 C9             6.6982    -4.6456     1.0914 C.3     
  10 C10            8.0526    -5.3424     0.9465 C.3     
  11 O11            6.1355    -4.9588     2.3671 O.3     
  12 O12            7.8613    -6.7585     0.9379 O.3     
  13 C13            8.9736    -7.5310     0.8151 C.ar    
  14 C14            8.8597    -8.9132     0.7996 C.ar    
  15 C15            9.9896    -9.6980     0.6749 C.ar    
  16 C16           11.2379    -9.1037     0.5646 C.ar    
  17 C17           11.3517    -7.7215     0.5791 C.ar    
  18 C18           10.2214    -6.9367     0.6995 C.ar    
  19 F19           -1.3757     1.7662     0.1247 F       
  20 F20            0.9100     3.2599     0.3102 F       
  21 O21           12.3503    -9.8763     0.4427 O.3     
  22 C22            3.4047    -2.1728    -0.0879 C.3     
  23 C23            4.7896    -2.8161    -0.1906 C.3     
  24 N24            5.5772    -2.4702     1.0009 N.3     
  25 C25            5.7247    -1.0135     1.1266 C.3     
  26 C26            4.3397    -0.3702     1.2293 C.3     
  27 H27           -0.9935    -0.8067    -0.0762 H       
  28 H28            3.1271     1.8845     0.2462 H       
  29 H29            1.2024    -1.9166    -0.1172 H       
  30 H30            7.4910    -2.7764     1.8115 H       
  31 H31            7.3944    -2.8999     0.0384 H       
  32 H32            6.0270    -4.9887     0.3041 H       
  33 H33            8.5220    -5.0335     0.0125 H       
  34 H34            8.6941    -5.0675     1.7838 H       
  35 H35            6.6806    -4.6815     3.1161 H       
  36 H36            7.8876    -9.3760     0.8855 H       
  37 H37            9.9010   -10.7743     0.6636 H       
  38 H38           12.3238    -7.2588     0.4932 H       
  39 H39           10.3100    -5.8604     0.7108 H       
  40 H40           12.5868   -10.0838    -0.4717 H       
  41 H41            2.8867    -2.5628     0.7883 H       
  42 H42            2.8289    -2.4040    -0.9840 H       
  43 H43            4.6837    -3.8991    -0.2547 H       
  44 H44            5.2970    -2.4466    -1.0817 H       
  45 H45            6.3004    -0.7822     2.0227 H       
  46 H46            6.2427    -0.6235     0.2504 H       
  47 H47            4.4457     0.7128     1.2934 H       
  48 H48            3.8323    -0.7397     2.1204 H       
@<TRIPOS>BOND
   1    1    2 ar
   2    1    3 ar
   3    1   19 1
   4    2    6 ar
   5    2   27 1
   6    3    4 ar
   7    3   20 1
   8    4    5 ar
   9    4   28 1
  10    5    6 ar
  11    5    7 1
  12    6   29 1
  13    7   22 1
  14    7   26 1
  15    8    9 1
  16    8   24 1
  17    8   30 1
  18    8   31 1
  19    9   11 1
  20    9   10 1
  21    9   32 1
  22   10   12 1
  23   10   33 1
  24   10   34 1
  25   11   35 1
  26   12   13 1
  27   13   14 ar
  28   13   18 ar
  29   14   15 ar
  30   14   36 1
  31   15   16 ar
  32   15   37 1
  33   16   17 ar
  34   16   21 1
  35   17   18 ar
  36   17   38 1
  37   18   39 1
  38   21   40 1
  39   22   23 1
  40   22   41 1
  41   22   42 1
  42   23   24 1
  43   23   43 1
  44   23   44 1
  45   24   25 1
  46   25   26 1
  47   25   45 1
  48   25   46 1
  49   26   47 1
  50   26   48 1

#	End of record

