#	Name: ASD01812997
#	Creating user name:	WinNT
#	Creation time:	15. 06. 2019 19:29

#	Modifying user name:	WinNT
#	Modification time:	15. 06. 2019 19:29

#	Program:	/corina/corina34_cracker 3.40 0067  02.08.2006

@<TRIPOS>MOLECULE
ASD01812997
  50   54    0    0    0
SMALL
NO_CHARGES


@<TRIPOS>ATOM
   1 N1             0.0027     1.3184    -0.2223 N.ar    
   2 C2             0.0319     0.0058    -0.3460 C.ar    
   3 C3             1.2340    -0.6843    -0.3686 C.ar    
   4 C4             2.4113     0.0205    -0.2597 C.ar    
   5 C5             2.3614     1.4132    -0.1292 C.ar    
   6 C6             1.1073     2.0395    -0.1145 C.ar    
   7 C7             3.8682    -0.3580    -0.2437 C.3     
   8 N8             4.6152     0.8976    -0.0979 N.am    
   9 C9             3.7395     1.9163    -0.0323 C.2     
  10 C10            6.0736     1.0204    -0.0334 C.3     
  11 C11            6.6248     1.1963    -1.4249 C.ar    
  12 O12            1.0259     3.3855     0.0100 O.3     
  13 O13            4.0442     3.0870     0.0901 O.2     
  14 C14            6.7719     2.4665    -1.9524 C.ar    
  15 C15            7.2762     2.6334    -3.2263 C.ar    
  16 C16            7.6375     1.5195    -3.9811 C.ar    
  17 C17            7.4872     0.2424    -3.4449 C.ar    
  18 C18            6.9871     0.0873    -2.1679 C.ar    
  19 C19            8.1799     1.6927    -5.3518 C.2     
  20 C20           -0.2021     3.9617    -0.0802 C.ar    
  21 C21           -1.0086     4.0613     1.0471 C.ar    
  22 N22            8.3749     2.8392    -5.9682 N.2     
  23 C23            8.5827     0.6596    -6.2202 C.2     
  24 C24            9.0152     1.2277    -7.3669 C.2     
  25 N25            8.9033     2.5671    -7.2366 N.pl3   
  26 C26            9.2661     3.5626    -8.2483 C.3     
  27 C27           -0.6495     4.4559    -1.2957 C.ar    
  28 C28           -1.8999     5.0425    -1.3850 C.ar    
  29 C29           -2.7036     5.1358    -0.2616 C.ar    
  30 C30           -2.2572     4.6482     0.9530 C.ar    
  31 F31           -0.5733     3.5848     2.2339 F       
  32 F32           -2.3364     5.5247    -2.5691 F       
  33 H33           -0.8959    -0.5406    -0.4306 H       
  34 H34            1.2466    -1.7594    -0.4699 H       
  35 H35            4.0750    -1.0173     0.5993 H       
  36 H36            4.1384    -0.8484    -1.1789 H       
  37 H37            6.3389     1.8854     0.5745 H       
  38 H38            6.4947     0.1196     0.4130 H       
  39 H39            6.4912     3.3293    -1.3665 H       
  40 H40            7.3903     3.6256    -3.6373 H       
  41 H41            7.7654    -0.6245    -4.0260 H       
  42 H42            6.8744    -0.9020    -1.7496 H       
  43 H43            8.5516    -0.3987    -6.0071 H       
  44 H44            9.3908     0.7032    -8.2331 H       
  45 H45           10.3074     3.8552    -8.1131 H       
  46 H46            9.1350     3.1349    -9.2423 H       
  47 H47            8.6259     4.4384    -8.1423 H       
  48 H48           -0.0226     4.3835    -2.1722 H       
  49 H49           -3.6789     5.5942    -0.3330 H       
  50 H50           -2.8844     4.7255     1.8288 H       
@<TRIPOS>BOND
   1    1    2 ar
   2    1    6 ar
   3    2    3 ar
   4    2   33 1
   5    3    4 ar
   6    3   34 1
   7    4    7 1
   8    4    5 ar
   9    5    6 ar
  10    5    9 1
  11    6   12 1
  12    7    8 1
  13    7   35 1
  14    7   36 1
  15    8    9 am
  16    8   10 1
  17    9   13 2
  18   10   11 1
  19   10   37 1
  20   10   38 1
  21   11   14 ar
  22   11   18 ar
  23   12   20 1
  24   14   15 ar
  25   14   39 1
  26   15   16 ar
  27   15   40 1
  28   16   17 ar
  29   16   19 1
  30   17   18 ar
  31   17   41 1
  32   18   42 1
  33   19   23 1
  34   19   22 2
  35   20   27 ar
  36   20   21 ar
  37   21   30 ar
  38   21   31 1
  39   22   25 1
  40   23   24 2
  41   23   43 1
  42   24   25 1
  43   24   44 1
  44   25   26 1
  45   26   45 1
  46   26   46 1
  47   26   47 1
  48   27   28 ar
  49   27   48 1
  50   28   29 ar
  51   28   32 1
  52   29   30 ar
  53   29   49 1
  54   30   50 1

#	End of record

