#	Name: ASD00960105
#	Creating user name:	WinNT
#	Creation time:	15. 06. 2019 18:53

#	Modifying user name:	WinNT
#	Modification time:	15. 06. 2019 18:53

#	Program:	/corina/corina34_cracker 3.40 0067  02.08.2006

@<TRIPOS>MOLECULE
ASD00960105
  36   38    0    0    0
SMALL
NO_CHARGES


@<TRIPOS>ATOM
   1 C1             0.2868     1.5690    -0.0519 C.3     
   2 C2            -0.0805     0.0703     0.0223 C.3     
   3 O3            -0.3095    -0.3218    -1.3487 O.3     
   4 C4            -1.0281     0.7802    -1.9447 C.3     
   5 C5            -0.8926     0.7426    -3.4682 C.3     
   6 C6             1.0593    -0.7206     0.6108 C.2     
   7 C7             1.2850    -0.8977     1.9308 C.2     
   8 N8             2.0134    -1.3692    -0.1043 N.pl3   
   9 C9             2.8825    -1.9770     0.7638 C.2     
  10 C10            2.4454    -1.6949     2.0650 C.2     
  11 N11            2.2410    -1.5111    -1.4812 N.2     
  12 C12            3.2605    -2.2085    -1.9076 C.2     
  13 N13            4.1096    -2.8021    -1.0748 N.2     
  14 C14            3.9639    -2.7153     0.2370 C.2     
  15 N15            4.8600    -3.3409     1.0821 N.pl3   
  16 C16           -0.3510     2.0467    -1.3756 C.3     
  17 O17            1.7055     1.7355    -0.0908 O.3     
  18 C18            3.0669    -2.1379     3.3156 C.2     
  19 O19           -1.5615    -0.4129    -3.9775 O.3     
  20 O20            3.5574    -3.2484     3.3910 O.2     
  21 O21            3.0951    -1.3142     4.3835 O.3     
  22 O22           -1.3225     3.0642    -1.1248 O.3     
  23 *23           -1.5262     3.9425    -2.2089 Du      
  24 H24           -0.1370     2.1084     0.7952 H       
  25 H25           -0.9856    -0.0698     0.6133 H       
  26 H26           -2.0785     0.7490    -1.6554 H       
  27 H27           -1.3411     1.6397    -3.8951 H       
  28 H28            0.1625     0.7002    -3.7382 H       
  29 H29            0.6872    -0.5014     2.7382 H       
  30 H30            3.4182    -2.3061    -2.9716 H       
  31 H31            5.4134    -4.0657     0.7516 H       
  32 H32            4.9356    -3.0554     2.0061 H       
  33 H33            0.4159     2.4100    -2.0598 H       
  34 H34            1.9921     2.6579    -0.1378 H       
  35 H35           -1.5164    -0.5014    -4.9394 H       
  36 H36            3.5159    -1.6507     5.1865 H       
@<TRIPOS>BOND
   1    1    2 1
   2    1   17 1
   3    1   16 1
   4    1   24 1
   5    2    3 1
   6    2    6 1
   7    2   25 1
   8    3    4 1
   9    4   16 1
  10    4    5 1
  11    4   26 1
  12    5   19 1
  13    5   27 1
  14    5   28 1
  15    6    7 2
  16    6    8 1
  17    7   10 1
  18    7   29 1
  19    8    9 1
  20    8   11 1
  21    9   10 2
  22    9   14 1
  23   10   18 1
  24   11   12 2
  25   12   13 1
  26   12   30 1
  27   13   14 2
  28   14   15 1
  29   15   31 1
  30   15   32 1
  31   16   22 1
  32   16   33 1
  33   17   34 1
  34   18   20 2
  35   18   21 1
  36   19   35 1
  37   21   36 1
  38   22   23 1

#	End of record

