#	Name: ASD01881675
#	Creating user name:	WinNT
#	Creation time:	15. 06. 2019 19:43

#	Modifying user name:	WinNT
#	Modification time:	15. 06. 2019 19:43

#	Program:	/corina/corina34_cracker 3.40 0067  02.08.2006

@<TRIPOS>MOLECULE
ASD01881675
  40   43    0    0    0
SMALL
NO_CHARGES


@<TRIPOS>ATOM
   1 N1             0.0456     1.1968    -0.7579 N.pl3   
   2 N2             0.0365    -0.0532    -0.4468 N.2     
   3 N3             1.2113    -0.4764    -0.1368 N.2     
   4 C4             2.0910     0.5404    -0.2382 C.ar    
   5 C5             1.3362     1.6558    -0.6484 C.ar    
   6 C6             3.4665     0.6767    -0.0328 C.ar    
   7 C7             4.0652     1.9044    -0.2354 C.ar    
   8 C8             3.3075     3.0004    -0.6413 C.ar    
   9 C9             1.9614     2.8800    -0.8463 C.ar    
  10 O10            5.4033     2.0444    -0.0370 O.3     
  11 N11            8.1157     5.1013    -0.9131 N.3     
  12 C12            7.8325     4.8572     0.5070 C.3     
  13 C13            7.2296     3.4607     0.6755 C.3     
  14 C14            5.9405     3.3642    -0.1452 C.3     
  15 C15            6.2547     3.6701    -1.6122 C.3     
  16 C16            6.8859     5.0605    -1.7145 C.3     
  17 F17            8.1424     2.5005     0.2261 F       
  18 C18           -1.1171     1.9900    -1.1641 C.3     
  19 C19           -1.7679     2.6116     0.0732 C.3     
  20 C20           -2.9342     3.5761    -0.1512 C.3     
  21 C21           -3.1953     2.1783     0.4136 C.3     
  22 Br22           4.4995    -0.8081     0.5188 Br      
  23 H23            3.7884     3.9550    -0.7957 H       
  24 H24            1.3841     3.7367    -1.1612 H       
  25 H25            8.6010     5.9768    -1.0398 H       
  26 H26            8.7581     4.9246     1.0787 H       
  27 H27            7.1264     5.6039     0.8700 H       
  28 H28            7.0051     3.2858     1.7277 H       
  29 H29            5.2145     4.0850     0.2308 H       
  30 H30            6.9505     2.9252    -1.9984 H       
  31 H31            5.3336     3.6448    -2.1945 H       
  32 H32            6.1841     5.8062    -1.3410 H       
  33 H33            7.1239     5.2756    -2.7562 H       
  34 H34           -0.7982     2.7809    -1.8430 H       
  35 H35           -1.8375     1.3464    -1.6690 H       
  36 H36           -1.0938     2.8215     0.9036 H       
  37 H37           -3.0276     4.4204     0.5318 H       
  38 H38           -3.2378     3.7678    -1.1804 H       
  39 H39           -3.6707     1.4505    -0.2440 H       
  40 H40           -3.4605     2.1031     1.4682 H       
@<TRIPOS>BOND
   1    1    2 1
   2    1    5 1
   3    1   18 1
   4    2    3 2
   5    3    4 1
   6    4    5 ar
   7    4    6 ar
   8    5    9 ar
   9    6    7 ar
  10    6   22 1
  11    7    8 ar
  12    7   10 1
  13    8    9 ar
  14    8   23 1
  15    9   24 1
  16   10   14 1
  17   11   12 1
  18   11   16 1
  19   11   25 1
  20   12   13 1
  21   12   26 1
  22   12   27 1
  23   13   14 1
  24   13   17 1
  25   13   28 1
  26   14   15 1
  27   14   29 1
  28   15   16 1
  29   15   30 1
  30   15   31 1
  31   16   32 1
  32   16   33 1
  33   18   19 1
  34   18   34 1
  35   18   35 1
  36   19   20 1
  37   19   21 1
  38   19   36 1
  39   20   21 1
  40   20   37 1
  41   20   38 1
  42   21   39 1
  43   21   40 1

#	End of record

