#	Name: ASD00550003
#	Creating user name:	WinNT
#	Creation time:	15. 06. 2019 18:36

#	Modifying user name:	WinNT
#	Modification time:	15. 06. 2019 18:36

#	Program:	/corina/corina34_cracker 3.40 0067  02.08.2006

@<TRIPOS>MOLECULE
ASD00550003
  80   83    0    0    0
SMALL
NO_CHARGES


@<TRIPOS>ATOM
   1 C1            -0.1275     0.6268    -1.3779 C.ar    
   2 C2            -0.0606    -0.6659    -0.8693 C.ar    
   3 C3            -0.9050    -1.0546     0.1638 C.ar    
   4 C4            -1.8118    -0.1606     0.6880 C.ar    
   5 C5            -1.8824     1.1395     0.1805 C.ar    
   6 C6            -1.0281     1.5290    -0.8543 C.ar    
   7 O7             0.8315    -1.5503    -1.3835 O.3     
   8 C8             0.8222    -2.8717    -0.8394 C.3     
   9 C9             1.4162    -3.8467    -1.8579 C.3     
  10 C10            1.6572    -2.9014     0.4422 C.3     
  11 Cl11           0.9295     1.1066    -2.6687 Cl      
  12 C12           -2.8531     2.1005     0.7399 C.2     
  13 N13           -2.9197     3.3539     0.2492 N.am    
  14 O14           -3.5926     1.7612     1.6434 O.2     
  15 C15           -3.9550     4.2736     0.7272 C.3     
  16 C16           -4.9004     4.6204    -0.4248 C.3     
  17 C17           -3.2987     5.5526     1.2510 C.3     
  18 C18           -2.4632     5.2286     2.4626 C.ar    
  19 N19           -5.4441     3.3870    -0.9985 N.am    
  20 C20           -6.3782     3.4493    -1.9681 C.2     
  21 C21           -6.9375     2.1805    -2.5582 C.3     
  22 O22           -6.7685     4.5266    -2.3657 O.2     
  23 N23           -7.9308     2.5155    -3.5874 N.3     
  24 C24           -7.2978     3.1839    -4.7321 C.3     
  25 C25           -8.6672     1.3193    -4.0175 C.3     
  26 C26           -1.1325     4.8832     2.3096 C.ar    
  27 C27           -3.0282     5.2832     3.7239 C.ar    
  28 C28           -0.3626     4.5859     3.4158 C.ar    
  29 C29           -0.9280     4.6342     4.6883 C.ar    
  30 C30           -2.2674     4.9883     4.8370 C.ar    
  31 C31           -0.1051     4.3156     5.8815 C.2     
  32 C32           -0.5359     4.3260     7.1737 C.2     
  33 N33            0.5294     3.9753     7.9549 N.pl3   
  34 C34            1.5929     3.7573     7.1170 C.2     
  35 N35            1.1899     3.9620     5.8718 N.2     
  36 C36            0.6713     3.8272     9.3048 C.2     
  37 C37            1.8579     3.4652     9.8357 C.2     
  38 C38            2.9660     3.2347     9.0037 C.2     
  39 C39            2.8388     3.3772     7.6571 C.2     
  40 C40            4.0184     3.1335     6.7513 C.3     
  41 C41            4.4103     4.4416     6.0612 C.3     
  42 O42            3.6684     2.1607     5.7648 O.3     
  43 H43           -0.8503    -2.0594     0.5558 H       
  44 H44           -2.4680    -0.4640     1.4903 H       
  45 H45           -1.0796     2.5329    -1.2492 H       
  46 H46           -0.2031    -3.1637    -0.6120 H       
  47 H47            2.4414    -3.5547    -2.0853 H       
  48 H48            1.4091    -4.8546    -1.4429 H       
  49 H49            0.8213    -3.8255    -2.7710 H       
  50 H50            1.6501    -3.9093     0.8572 H       
  51 H51            2.6824    -2.6094     0.2148 H       
  52 H52            1.2340    -2.2068     1.1678 H       
  53 H53           -2.2821     3.6471    -0.4204 H       
  54 H54           -4.5194     3.7997     1.5302 H       
  55 H55           -5.7170     5.2382    -0.0512 H       
  56 H56           -4.3526     5.1674    -1.1922 H       
  57 H57           -2.6632     5.9791     0.4748 H       
  58 H58           -4.0710     6.2717     1.5240 H       
  59 H59           -5.1320     2.5254    -0.6805 H       
  60 H60           -6.1302     1.6018    -3.0071 H       
  61 H61           -7.4124     1.5929    -1.7725 H       
  62 H62           -6.5496     2.5234    -5.1704 H       
  63 H63           -8.0555     3.4207    -5.4791 H       
  64 H64           -6.8187     4.1036    -4.3964 H       
  65 H65           -9.1835     0.8834    -3.1622 H       
  66 H66           -9.3958     1.5957    -4.7795 H       
  67 H67           -7.9686     0.5913    -4.4298 H       
  68 H68           -0.6954     4.8458     1.3227 H       
  69 H69           -4.0666     5.5574     3.8380 H       
  70 H70            0.6762     4.3160     3.2952 H       
  71 H71           -2.7107     5.0272     5.8211 H       
  72 H72           -1.5314     4.5665     7.5164 H       
  73 H73           -0.1741     4.0019     9.9538 H       
  74 H74            1.9561     3.3524    10.9053 H       
  75 H75            3.9146     2.9453     9.4313 H       
  76 H76            4.8592     2.7673     7.3404 H       
  77 H77            4.6773     5.1836     6.8137 H       
  78 H78            5.2635     4.2653     5.4061 H       
  79 H79            3.5695     4.8077     5.4722 H       
  80 H80            4.3819     1.9541     5.1457 H       
@<TRIPOS>BOND
   1    1    2 ar
   2    1   11 1
   3    1    6 ar
   4    2    3 ar
   5    2    7 1
   6    3    4 ar
   7    3   43 1
   8    4    5 ar
   9    4   44 1
  10    5    6 ar
  11    5   12 1
  12    6   45 1
  13    7    8 1
  14    8    9 1
  15    8   10 1
  16    8   46 1
  17    9   47 1
  18    9   48 1
  19    9   49 1
  20   10   50 1
  21   10   51 1
  22   10   52 1
  23   12   13 am
  24   12   14 2
  25   13   15 1
  26   13   53 1
  27   15   16 1
  28   15   17 1
  29   15   54 1
  30   16   19 1
  31   16   55 1
  32   16   56 1
  33   17   18 1
  34   17   57 1
  35   17   58 1
  36   18   26 ar
  37   18   27 ar
  38   19   20 am
  39   19   59 1
  40   20   21 1
  41   20   22 2
  42   21   23 1
  43   21   60 1
  44   21   61 1
  45   23   24 1
  46   23   25 1
  47   24   62 1
  48   24   63 1
  49   24   64 1
  50   25   65 1
  51   25   66 1
  52   25   67 1
  53   26   28 ar
  54   26   68 1
  55   27   30 ar
  56   27   69 1
  57   28   29 ar
  58   28   70 1
  59   29   30 ar
  60   29   31 1
  61   30   71 1
  62   31   32 2
  63   31   35 1
  64   32   33 1
  65   32   72 1
  66   33   34 1
  67   33   36 1
  68   34   35 2
  69   34   39 1
  70   36   37 2
  71   36   73 1
  72   37   38 1
  73   37   74 1
  74   38   39 2
  75   38   75 1
  76   39   40 1
  77   40   41 1
  78   40   42 1
  79   40   76 1
  80   41   77 1
  81   41   78 1
  82   41   79 1
  83   42   80 1

#	End of record

