#	Name: ASD03940004
#	Creating user name:	WinNT
#	Creation time:	15. 06. 2019 20:47

#	Modifying user name:	WinNT
#	Modification time:	15. 06. 2019 20:47

#	Program:	/corina/corina34_cracker 3.40 0067  02.08.2006

@<TRIPOS>MOLECULE
ASD03940004
  47   49    0    0    0
SMALL
NO_CHARGES


@<TRIPOS>ATOM
   1 P1            -0.0198     1.6058     0.0109 P.3     
   2 P2            -0.8668     3.5472     2.0842 P.3     
   3 P3            -1.3197     4.2431     4.9295 P.3     
   4 C4             0.6906    -0.7676    -0.9904 C.3     
   5 O5             0.0021    -0.0041     0.0020 O.3     
   6 C6             0.5083    -2.2594    -0.7035 C.3     
   7 O7            -0.8659    -2.6236    -0.8790 O.3     
   8 C8             1.3424    -3.0905    -1.7019 C.3     
   9 O9             2.5553    -3.5439    -1.0975 O.3     
  10 C10            0.3972    -4.2843    -2.0075 C.3     
  11 O11            0.5154    -5.3027    -1.0120 O.3     
  12 C12           -0.9862    -3.5902    -1.9348 C.3     
  13 N13           -4.3977    -7.0611    -3.7495 N.ar    
  14 O14            1.3687     2.1180     0.0004 O.2     
  15 O15            0.4594     4.2039     2.0633 O.2     
  16 S16           -2.1265     3.1528     6.5589 S.3     
  17 C17           -3.5505    -6.3058    -4.4244 C.ar    
  18 O18           -0.7984     2.1391    -1.2935 O.3     
  19 O19           -1.9400     4.4811     1.3303 O.3     
  20 O20            0.0709     4.6413     5.2426 O.2     
  21 N21           -2.7337    -5.4591    -3.8339 N.ar    
  22 O22           -0.7733     2.1250     1.3355 O.3     
  23 O23           -1.3298     3.3214     3.6095 O.3     
  24 O24           -2.2098     5.5597     4.6716 O.3     
  25 C25           -2.7311    -5.3310    -2.5111 C.ar    
  26 C26           -3.6145    -6.1128    -1.7476 C.ar    
  27 C27           -4.4671    -7.0019    -2.4236 C.ar    
  28 N28           -5.3586    -7.7971    -1.7250 N.pl3   
  29 N29           -3.4098    -5.7920    -0.4475 N.2     
  30 C30           -2.4798    -4.8852    -0.3663 C.2     
  31 N31           -2.0291    -4.5675    -1.6130 N.pl3   
  32 H32            0.2843    -0.5347    -1.9747 H       
  33 H33            1.7519    -0.5203    -0.9676 H       
  34 H34            0.8220    -2.4806     0.3166 H       
  35 H35            1.5518    -2.5166    -2.6046 H       
  36 H36            3.1143    -4.0709    -1.6848 H       
  37 H37            0.5831    -4.6879    -3.0028 H       
  38 H38            1.3990    -5.6905    -0.9490 H       
  39 H39           -1.2103    -3.0935    -2.8788 H       
  40 H40           -2.0566     4.0313     7.5750 H       
  41 H41           -3.5267    -6.3859    -5.5012 H       
  42 H42           -1.7167     1.8416    -1.3524 H       
  43 H43           -2.8336     4.1124     1.3056 H       
  44 H44           -3.1350     5.3738     4.4604 H       
  45 H45           -5.9423    -8.4068    -2.2031 H       
  46 H46           -5.3998    -7.7449    -0.7573 H       
  47 H47           -2.1187    -4.4485     0.5530 H       
@<TRIPOS>BOND
   1    1    5 1
   2    1   14 2
   3    1   18 1
   4    1   22 1
   5    2   15 2
   6    2   19 1
   7    2   22 1
   8    2   23 1
   9    3   16 1
  10    3   20 2
  11    3   23 1
  12    3   24 1
  13    4    5 1
  14    4    6 1
  15    4   32 1
  16    4   33 1
  17    6    7 1
  18    6    8 1
  19    6   34 1
  20    7   12 1
  21    8    9 1
  22    8   10 1
  23    8   35 1
  24    9   36 1
  25   10   11 1
  26   10   12 1
  27   10   37 1
  28   11   38 1
  29   12   31 1
  30   12   39 1
  31   13   17 ar
  32   13   27 ar
  33   16   40 1
  34   17   21 ar
  35   17   41 1
  36   18   42 1
  37   19   43 1
  38   21   25 ar
  39   24   44 1
  40   25   26 ar
  41   25   31 1
  42   26   27 ar
  43   26   29 1
  44   27   28 1
  45   28   45 1
  46   28   46 1
  47   29   30 2
  48   30   31 1
  49   30   47 1

#	End of record

