#	Name: ASD01810023
#	Creating user name:	WinNT
#	Creation time:	15. 06. 2019 19:23

#	Modifying user name:	WinNT
#	Modification time:	15. 06. 2019 19:23

#	Program:	/corina/corina34_cracker 3.40 0067  02.08.2006

@<TRIPOS>MOLECULE
ASD01810023
  49   53    0    0    0
SMALL
NO_CHARGES


@<TRIPOS>ATOM
   1 N1            -0.8101     2.2424    -0.5423 N.am    
   2 C2            -1.2236     0.9560    -0.4972 C.2     
   3 C3            -2.4786     0.5791    -1.2463 C.3     
   4 C4            -3.5965     1.6093    -1.1058 C.3     
   5 C5            -3.0668     3.0044    -1.2976 C.ar    
   6 C6            -1.7313     3.2069    -0.9733 C.ar    
   7 C7            -3.7967     4.0673    -1.7588 C.ar    
   8 C8            -3.2029     5.3278    -1.8715 C.ar    
   9 C9            -1.8882     5.5297    -1.5125 C.ar    
  10 C10           -1.1260     4.4550    -1.0444 C.ar    
  11 C11            0.3675     2.8700    -0.2439 C.ar    
  12 C12            0.2351     4.2510    -0.5449 C.ar    
  13 C13            1.2921     5.1453    -0.3500 C.ar    
  14 C14            2.4785     4.6229     0.1580 C.ar    
  15 C15            2.6061     3.2722     0.4583 C.ar    
  16 C16            1.5642     2.3731     0.2685 C.ar    
  17 C17           -4.0547     6.4513    -2.4054 C.3     
  18 N18           -3.4669     7.7509    -2.0690 N.3     
  19 C19           -2.0629     7.8033    -2.5069 C.3     
  20 C20           -1.2402     6.8867    -1.6015 C.3     
  21 O21           -0.6011     0.1252     0.1295 O.2     
  22 O22            3.5372     5.4538     0.3648 O.3     
  23 O23            3.7870     2.8167     0.9550 O.3     
  24 C24            3.7184     5.9561     1.6903 C.3     
  25 C25            3.8719     1.4208     1.2490 C.3     
  26 O26            1.1670     6.4667    -0.6441 O.3     
  27 C27            0.7857     7.3358     0.4241 C.3     
  28 H28           -2.2355     0.4683    -2.3031 H       
  29 H29           -2.8365    -0.3792    -0.8699 H       
  30 H30           -4.3631     1.4109    -1.8548 H       
  31 H31           -4.0373     1.5267    -0.1123 H       
  32 H32           -4.8317     3.9316    -2.0359 H       
  33 H33            1.6785     1.3260     0.5069 H       
  34 H34           -4.1303     6.3610    -3.4891 H       
  35 H35           -5.0516     6.3844    -1.9698 H       
  36 H36           -4.0006     8.5050    -2.4746 H       
  37 H37           -1.9876     7.4628    -3.5396 H       
  38 H38           -1.6921     8.8253    -2.4290 H       
  39 H39           -1.1784     7.3238    -0.6049 H       
  40 H40           -0.2355     6.7813    -2.0109 H       
  41 H41            2.7993     6.4367     2.0255 H       
  42 H42            3.9631     5.1323     2.3608 H       
  43 H43            4.5311     6.6825     1.6956 H       
  44 H44            3.1206     1.1602     1.9945 H       
  45 H45            3.6958     0.8466     0.3394 H       
  46 H46            4.8641     1.1909     1.6374 H       
  47 H47            1.5829     7.3703     1.1667 H       
  48 H48            0.6104     8.3378     0.0324 H       
  49 H49           -0.1272     6.9623     0.8882 H       
@<TRIPOS>BOND
   1    1    2 am
   2    1   11 1
   3    1    6 1
   4    2    3 1
   5    2   21 2
   6    3    4 1
   7    3   28 1
   8    3   29 1
   9    4    5 1
  10    4   30 1
  11    4   31 1
  12    5    6 ar
  13    5    7 ar
  14    6   10 ar
  15    7    8 ar
  16    7   32 1
  17    8    9 ar
  18    8   17 1
  19    9   10 ar
  20    9   20 1
  21   10   12 1
  22   11   12 ar
  23   11   16 ar
  24   12   13 ar
  25   13   14 ar
  26   13   26 1
  27   14   15 ar
  28   14   22 1
  29   15   16 ar
  30   15   23 1
  31   16   33 1
  32   17   18 1
  33   17   34 1
  34   17   35 1
  35   18   19 1
  36   18   36 1
  37   19   20 1
  38   19   37 1
  39   19   38 1
  40   20   39 1
  41   20   40 1
  42   22   24 1
  43   23   25 1
  44   24   41 1
  45   24   42 1
  46   24   43 1
  47   25   44 1
  48   25   45 1
  49   25   46 1
  50   26   27 1
  51   27   47 1
  52   27   48 1
  53   27   49 1

#	End of record

