#	Name: ASD05143262
#	Creating user name:	WinNT
#	Creation time:	15. 06. 2019 20:57

#	Modifying user name:	WinNT
#	Modification time:	15. 06. 2019 20:57

#	Program:	/corina/corina34_cracker 3.40 0067  02.08.2006

@<TRIPOS>MOLECULE
ASD05143262
  44   46    0    0    0
SMALL
NO_CHARGES


@<TRIPOS>ATOM
   1 C1             0.4083     1.2120     0.1171 C.2     
   2 N2             0.3554    -0.0576    -0.2343 N.2     
   3 S3            -1.2970    -0.4276    -0.3755 S.3     
   4 C4            -1.8338     1.1534     0.0478 C.2     
   5 N5            -0.7378     1.8452     0.2704 N.2     
   6 N6            -3.1393     1.5989     0.1390 N.pl3   
   7 C7            -3.4062     2.8922     0.5990 C.ar    
   8 C8            -4.7165     3.2888     0.8421 C.ar    
   9 C9            -4.9761     4.5676     1.2964 C.ar    
  10 C10           -3.9343     5.4523     1.5087 C.ar    
  11 C11           -2.6305     5.0608     1.2673 C.ar    
  12 C12           -2.3630     3.7816     0.8193 C.ar    
  13 C13            1.4146    -0.9041    -0.4431 C.ar    
  14 C14            2.3796    -0.5957    -1.4032 C.ar    
  15 C15            1.5350    -2.0748     0.3079 C.ar    
  16 C16            2.6026    -2.9213     0.0933 C.ar    
  17 C17            3.5531    -2.6123    -0.8639 C.ar    
  18 C18            3.4426    -1.4512    -1.6078 C.ar    
  19 C19            1.7031     1.8977     0.3368 C.ar    
  20 C20            1.8344     3.2553     0.0463 C.ar    
  21 C21            2.7937     1.1895     0.8405 C.ar    
  22 C22            3.9969     1.8337     1.0435 C.ar    
  23 C23            4.1225     3.1796     0.7488 C.ar    
  24 C24            3.0428     3.8886     0.2535 C.ar    
  25 Cl25          -6.0244     2.1791     0.5747 Cl      
  26 C26            0.5011    -2.4127     1.3509 C.3     
  27 H27           -3.8702     1.0143    -0.1160 H       
  28 H28           -5.9934     4.8767     1.4856 H       
  29 H29           -4.1398     6.4514     1.8635 H       
  30 H30           -1.8196     5.7545     1.4336 H       
  31 H31           -1.3441     3.4768     0.6311 H       
  32 H32            2.2942     0.3102    -1.9848 H       
  33 H33            2.6972    -3.8272     0.6737 H       
  34 H34            4.3874    -3.2784    -1.0277 H       
  35 H35            4.1878    -1.2158    -2.3532 H       
  36 H36            0.9922     3.8099    -0.3405 H       
  37 H37            2.6967     0.1390     1.0716 H       
  38 H38            4.8423     1.2863     1.4335 H       
  39 H39            5.0661     3.6796     0.9097 H       
  40 H40            3.1468     4.9391     0.0252 H       
  41 H41           -0.2529    -3.0687     0.9160 H       
  42 H42            0.9819    -2.9172     2.1890 H       
  43 H43            0.0266    -1.4964     1.7022 H       
  44 Br44          10.0661    11.4514     7.1890 Br      
@<TRIPOS>BOND
   1    1    2 2
   2    1   19 1
   3    1    5 1
   4    2    3 1
   5    2   13 1
   6    3    4 1
   7    4    5 2
   8    4    6 1
   9    6    7 1
  10    6   27 1
  11    7    8 ar
  12    7   12 ar
  13    8    9 ar
  14    8   25 1
  15    9   10 ar
  16    9   28 1
  17   10   11 ar
  18   10   29 1
  19   11   12 ar
  20   11   30 1
  21   12   31 1
  22   13   14 ar
  23   13   15 ar
  24   14   18 ar
  25   14   32 1
  26   15   16 ar
  27   15   26 1
  28   16   17 ar
  29   16   33 1
  30   17   18 ar
  31   17   34 1
  32   18   35 1
  33   19   20 ar
  34   19   21 ar
  35   20   24 ar
  36   20   36 1
  37   21   22 ar
  38   21   37 1
  39   22   23 ar
  40   22   38 1
  41   23   24 ar
  42   23   39 1
  43   24   40 1
  44   26   41 1
  45   26   42 1
  46   26   43 1

#	End of record

