#	Name: ASD09740158
#	Creating user name:	WinNT
#	Creation time:	15. 06. 2019 21:22

#	Modifying user name:	WinNT
#	Modification time:	15. 06. 2019 21:22

#	Program:	/corina/corina34_cracker 3.40 0067  02.08.2006

@<TRIPOS>MOLECULE
ASD09740158
  35   37    0    0    0
SMALL
NO_CHARGES


@<TRIPOS>ATOM
   1 O1            -0.0144     1.2086     0.0087 O.3     
   2 N2             0.0021    -0.0041     0.0020 N.2     
   3 C3             1.2407     1.6828    -0.0008 C.2     
   4 N4             2.0451     0.6378    -0.0140 N.2     
   5 C5             1.2351    -0.4415    -0.0121 C.2     
   6 C6             1.6638    -1.8627    -0.0234 C.ar    
   7 C7             1.6451     3.1065     0.0026 C.ar    
   8 C8             3.0195    -2.1832    -0.0376 C.ar    
   9 C9             0.7121    -2.8792    -0.0141 C.ar    
  10 C10            1.1183    -4.2033    -0.0247 C.ar    
  11 C11            2.4711    -4.5143    -0.0447 C.ar    
  12 C12            3.4160    -3.5057    -0.0481 C.ar    
  13 C13            0.6884     4.1232     0.0172 C.ar    
  14 C14            1.1135     5.4463     0.0204 C.ar    
  15 N15            2.4041     5.7421     0.0096 N.ar    
  16 C16            3.3347     4.8068    -0.0043 C.ar    
  17 C17            2.9978     3.4696    -0.0029 C.ar    
  18 N18            0.1734     6.4706     0.0344 N.pl3   
  19 C19            2.9107    -5.9558    -0.0562 C.3     
  20 O20            0.1925    -5.1982    -0.0152 O.3     
  21 C21           -1.1814    -4.8057     0.0058 C.3     
  22 H22            3.7603    -1.3973    -0.0407 H       
  23 H23           -0.3400    -2.6357     0.0018 H       
  24 H24            4.4673    -3.7527    -0.0636 H       
  25 H25           -0.3650     3.8853     0.0256 H       
  26 H26            4.3761     5.0929    -0.0131 H       
  27 H27            3.7673     2.7119    -0.0140 H       
  28 H28           -0.7734     6.2598     0.0420 H       
  29 H29            0.4643     7.3959     0.0366 H       
  30 H30            3.0024    -6.2994    -1.0866 H       
  31 H31            3.8750    -6.0456     0.4440 H       
  32 H32            2.1726    -6.5649     0.4656 H       
  33 H33           -1.3769    -4.2151     0.9008 H       
  34 H34           -1.4022    -4.2086    -0.8790 H       
  35 H35           -1.8130    -5.6940     0.0115 H       
@<TRIPOS>BOND
   1    1    2 1
   2    1    3 1
   3    2    5 2
   4    3    4 2
   5    3    7 1
   6    4    5 1
   7    5    6 1
   8    6    8 ar
   9    6    9 ar
  10    7   13 ar
  11    7   17 ar
  12    8   12 ar
  13    8   22 1
  14    9   10 ar
  15    9   23 1
  16   10   11 ar
  17   10   20 1
  18   11   12 ar
  19   11   19 1
  20   12   24 1
  21   13   14 ar
  22   13   25 1
  23   14   15 ar
  24   14   18 1
  25   15   16 ar
  26   16   17 ar
  27   16   26 1
  28   17   27 1
  29   18   28 1
  30   18   29 1
  31   19   30 1
  32   19   31 1
  33   19   32 1
  34   20   21 1
  35   21   33 1
  36   21   34 1
  37   21   35 1

#	End of record

