#	Name: ASD03430728
#	Creating user name:	WinNT
#	Creation time:	15. 06. 2019 20:41

#	Modifying user name:	WinNT
#	Modification time:	15. 06. 2019 20:41

#	Program:	/corina/corina34_cracker 3.40 0067  02.08.2006

@<TRIPOS>MOLECULE
ASD03430728
  51   56    0    0    0
SMALL
NO_CHARGES


@<TRIPOS>ATOM
   1 C1             0.2145     1.2015    -0.4014 C.ar    
   2 C2             0.2236    -0.1834    -0.3367 C.ar    
   3 C3             1.4188    -0.8668    -0.2609 C.ar    
   4 C4             2.6283    -0.1788    -0.2383 C.ar    
   5 C5             2.6157     1.2107    -0.3076 C.ar    
   6 C6             1.4168     1.8990    -0.3876 C.ar    
   7 O7             3.6830    -1.0370    -0.1327 O.3     
   8 C8             1.7577    -2.3322    -0.2015 C.3     
   9 C9             3.2599    -2.3596    -0.5155 C.3     
  10 C10            0.5733    -3.9809     0.8911 C.ar    
  11 C11            1.4540    -2.9341     1.1379 C.ar    
  12 C12            0.9666    -3.1405    -1.1894 C.2     
  13 N13            0.3080    -4.0768    -0.4777 N.am    
  14 O14            0.9276    -2.9819    -2.3912 O.2     
  15 C15            1.8633    -2.6472     2.4356 C.ar    
  16 C16            1.3857    -3.4175     3.4996 C.ar    
  17 C17            0.5118    -4.4562     3.2526 C.ar    
  18 C18            0.1062    -4.7392     1.9633 C.ar    
  19 C19           -0.5822    -5.0782    -1.0700 C.3     
  20 O20            1.4313     3.2592    -0.4487 O.3     
  21 O21           -0.9745     1.8601    -0.4834 O.3     
  22 C22           -0.9578     3.2588    -0.1776 C.3     
  23 C23            0.2331     3.8953    -0.9063 C.3     
  24 C24            2.7988    -1.5323     2.6887 C.2     
  25 O25            2.5700    -0.4312     2.2293 O.2     
  26 O26            3.9058    -1.7367     3.4289 O.3     
  27 C27            4.7688    -0.6936     3.5493 C.ar    
  28 C28            4.4367     0.3949     4.3428 C.ar    
  29 C29            5.3157     1.4536     4.4639 C.ar    
  30 C30            6.5255     1.4293     3.7949 C.ar    
  31 C31            6.8587     0.3458     3.0032 C.ar    
  32 C32            5.9858    -0.7182     2.8836 C.ar    
  33 H33           -0.7086    -0.7287    -0.3454 H       
  34 H34            3.5476     1.7564    -0.2983 H       
  35 H35            3.4300    -2.5277    -1.5790 H       
  36 H36            3.7667    -3.1165     0.0830 H       
  37 H37            1.6994    -3.2009     4.5101 H       
  38 H38            0.1420    -5.0522     4.0737 H       
  39 H39           -0.5784    -5.5550     1.7842 H       
  40 H40           -1.5979    -4.6845    -1.1078 H       
  41 H41           -0.2453    -5.3119    -2.0799 H       
  42 H42           -0.5658    -5.9834    -0.4629 H       
  43 H43           -1.8853     3.7203    -0.5165 H       
  44 H44           -0.8484     3.3987     0.8978 H       
  45 H45            0.2740     4.9613    -0.6824 H       
  46 H46            0.1274     3.7486    -1.9812 H       
  47 H47            3.4915     0.4148     4.8650 H       
  48 H48            5.0577     2.3013     5.0815 H       
  49 H49            7.2113     2.2581     3.8906 H       
  50 H50            7.8041     0.3293     2.4813 H       
  51 H51            6.2464    -1.5643     2.2650 H       
@<TRIPOS>BOND
   1    1    2 ar
   2    1    6 ar
   3    1   21 1
   4    2    3 ar
   5    2   33 1
   6    3    4 ar
   7    3    8 1
   8    4    5 ar
   9    4    7 1
  10    5    6 ar
  11    5   34 1
  12    6   20 1
  13    7    9 1
  14    8    9 1
  15    8   11 1
  16    8   12 1
  17    9   35 1
  18    9   36 1
  19   10   11 ar
  20   10   13 1
  21   10   18 ar
  22   11   15 ar
  23   12   13 am
  24   12   14 2
  25   13   19 1
  26   15   16 ar
  27   15   24 1
  28   16   17 ar
  29   16   37 1
  30   17   18 ar
  31   17   38 1
  32   18   39 1
  33   19   40 1
  34   19   41 1
  35   19   42 1
  36   20   23 1
  37   21   22 1
  38   22   23 1
  39   22   43 1
  40   22   44 1
  41   23   45 1
  42   23   46 1
  43   24   25 2
  44   24   26 1
  45   26   27 1
  46   27   28 ar
  47   27   32 ar
  48   28   29 ar
  49   28   47 1
  50   29   30 ar
  51   29   48 1
  52   30   31 ar
  53   30   49 1
  54   31   32 ar
  55   31   50 1
  56   32   51 1

#	End of record

