#	Name: ASD01884869
#	Creating user name:	WinNT
#	Creation time:	15. 06. 2019 19:49

#	Modifying user name:	WinNT
#	Modification time:	15. 06. 2019 19:49

#	Program:	/corina/corina34_cracker 3.40 0067  02.08.2006

@<TRIPOS>MOLECULE
ASD01884869
  44   49    0    0    0
SMALL
NO_CHARGES


@<TRIPOS>ATOM
   1 C1            -0.0164     1.3606     0.0095 C.ar    
   2 C2             0.0021    -0.0041     0.0020 C.ar    
   3 C3             1.2155    -0.7016    -0.0134 C.ar    
   4 C4             2.4183    -0.0064    -0.0212 C.ar    
   5 C5             2.4032     1.3877    -0.0135 C.ar    
   6 C6             1.1765     2.0775     0.0020 C.ar    
   7 C7             3.4481     2.4160    -0.0176 C.2     
   8 C8             2.8287     3.6061    -0.0050 C.2     
   9 N9             1.4697     3.4256     0.0069 N.pl3   
  10 C10            1.2172    -2.1834    -0.0208 C.2     
  11 C11            0.7029    -2.8769    -1.1013 C.2     
  12 C12            1.7507    -2.9034     1.0757 C.2     
  13 C13            1.7517    -4.2494     1.0669 C.2     
  14 N14            1.2415    -4.9430     0.0070 N.pl3   
  15 C15            0.7187    -4.2830    -1.0786 C.2     
  16 Cl16           0.0474    -2.0248    -2.4643 Cl      
  17 C17            1.1139    -6.2703    -0.2683 C.2     
  18 N18            0.5460    -6.3765    -1.4419 N.2     
  19 N19            0.3086    -5.2101    -1.9305 N.2     
  20 C20            1.5484    -7.4095     0.6174 C.3     
  21 C21            0.4724    -8.3924     1.0831 C.3     
  22 C22            1.4957    -8.8211     0.0296 C.3     
  23 C23            0.5242     4.4521     0.0216 C.ar    
  24 N24           -0.7656     4.1554     0.0317 N.ar    
  25 C25           -1.6917     5.0948     0.0462 C.ar    
  26 C26           -1.3445     6.4313     0.0514 C.ar    
  27 C27           -0.0020     6.7847     0.0412 C.ar    
  28 C28            0.9459     5.7767     0.0314 C.ar    
  29 H29           -0.9600     1.8860     0.0168 H       
  30 H30           -0.9290    -0.5513     0.0084 H       
  31 H31            3.3566    -0.5411    -0.0327 H       
  32 H32            4.5148     2.2474    -0.0286 H       
  33 H33            3.3268     4.5643    -0.0043 H       
  34 H34            2.1585    -2.3706     1.9219 H       
  35 H35            2.1616    -4.7877     1.9087 H       
  36 H36            2.3576    -7.1829     1.3117 H       
  37 H37            0.5738    -8.8128     2.0837 H       
  38 H38           -0.5499    -8.2151     0.7489 H       
  39 H39            1.1468    -8.9258    -0.9977 H       
  40 H40            2.2705    -9.5235     0.3371 H       
  41 H41           -2.7348     4.8150     0.0537 H       
  42 H42           -2.1094     7.1937     0.0630 H       
  43 H43            0.2959     7.8228     0.0447 H       
  44 H44            1.9991     6.0158     0.0234 H       
@<TRIPOS>BOND
   1    1    2 ar
   2    1    6 ar
   3    1   29 1
   4    2    3 ar
   5    2   30 1
   6    3    4 ar
   7    3   10 1
   8    4    5 ar
   9    4   31 1
  10    5    6 ar
  11    5    7 1
  12    6    9 1
  13    7    8 2
  14    7   32 1
  15    8    9 1
  16    8   33 1
  17    9   23 1
  18   10   11 2
  19   10   12 1
  20   11   16 1
  21   11   15 1
  22   12   13 2
  23   12   34 1
  24   13   14 1
  25   13   35 1
  26   14   15 1
  27   14   17 1
  28   15   19 2
  29   17   18 2
  30   17   20 1
  31   18   19 1
  32   20   21 1
  33   20   22 1
  34   20   36 1
  35   21   22 1
  36   21   37 1
  37   21   38 1
  38   22   39 1
  39   22   40 1
  40   23   24 ar
  41   23   28 ar
  42   24   25 ar
  43   25   26 ar
  44   25   41 1
  45   26   27 ar
  46   26   42 1
  47   27   28 ar
  48   27   43 1
  49   28   44 1

#	End of record

