#	Name: ASD00170095
#	Creating user name:	WinNT
#	Creation time:	15. 06. 2019 18:31

#	Modifying user name:	WinNT
#	Modification time:	15. 06. 2019 18:31

#	Program:	/corina/corina34_cracker 3.40 0067  02.08.2006

@<TRIPOS>MOLECULE
ASD00170095
  52   56    0    0    0
SMALL
NO_CHARGES


@<TRIPOS>ATOM
   1 C1             0.0028     1.3495    -0.0670 C.2     
   2 C2             0.0222     0.0144     0.2016 C.2     
   3 C3            -1.3116    -0.5536     0.2772 C.2     
   4 C4            -2.3015     0.3756     0.0621 C.2     
   5 S5            -1.6480     1.9224    -0.2218 S.3     
   6 N6            -3.6500     0.0929     0.0800 N.pl3   
   7 C7             1.2028     2.1971    -0.2026 C.ar    
   8 C8             2.2689     1.7813    -1.0042 C.ar    
   9 C9             3.3873     2.5791    -1.1267 C.ar    
  10 C10            3.4553     3.7885    -0.4576 C.ar    
  11 C11            2.4033     4.2065     0.3385 C.ar    
  12 C12            1.2761     3.4221     0.4654 C.ar    
  13 C13           -1.5743    -1.9650     0.5530 C.2     
  14 O14           -1.7433    -2.7442    -0.3676 O.2     
  15 C15            1.2629    -0.7688     0.3946 C.ar    
  16 C16            2.0741    -0.5340     1.5055 C.ar    
  17 C17            3.2292    -1.2679     1.6799 C.ar    
  18 C18            3.5840    -2.2350     0.7563 C.ar    
  19 C19            2.7842    -2.4724    -0.3475 C.ar    
  20 C20            1.6236    -1.7493    -0.5304 C.ar    
  21 C21           -1.6350    -2.4466     1.9498 C.ar    
  22 C22            4.8472    -3.0329     0.9531 C.3     
  23 C23           -1.5521    -1.5260     3.0093 C.ar    
  24 C24           -1.6059    -1.9434     4.2999 C.ar    
  25 C25           -1.7456    -3.3125     4.5916 C.ar    
  26 C26           -1.8303    -4.2510     3.5316 C.ar    
  27 C27           -1.7788    -3.8006     2.2043 C.ar    
  28 C28           -1.8025    -3.7684     5.9192 C.ar    
  29 C29           -1.9377    -5.0996     6.1704 C.ar    
  30 C30           -2.0206    -6.0221     5.1291 C.ar    
  31 C31           -1.9696    -5.6185     3.8305 C.ar    
  32 H32           -3.9564    -0.7943     0.3249 H       
  33 H33           -4.2929     0.7811    -0.1522 H       
  34 H34            2.2175     0.8374    -1.5264 H       
  35 H35            4.2122     2.2589    -1.7460 H       
  36 H36            4.3337     4.4089    -0.5568 H       
  37 H37            2.4635     5.1513     0.8584 H       
  38 H38            0.4559     3.7495     1.0870 H       
  39 H39            1.7984     0.2209     2.2270 H       
  40 H40            3.8581    -1.0868     2.5391 H       
  41 H41            3.0670    -3.2282    -1.0653 H       
  42 H42            1.0000    -1.9357    -1.3923 H       
  43 H43            4.6247    -3.9280     1.5339 H       
  44 H44            5.2501    -3.3207    -0.0179 H       
  45 H45            5.5803    -2.4271     1.4856 H       
  46 H46           -1.4440    -0.4733     2.7936 H       
  47 H47           -1.5409    -1.2242     5.1030 H       
  48 H48           -1.8421    -4.5045     1.3876 H       
  49 H49           -1.7389    -3.0659     6.7370 H       
  50 H50           -1.9811    -5.4460     7.1924 H       
  51 H51           -2.1273    -7.0726     5.3561 H       
  52 H52           -2.0350    -6.3444     3.0335 H       
@<TRIPOS>BOND
   1    1    2 2
   2    1    7 1
   3    1    5 1
   4    2    3 1
   5    2   15 1
   6    3    4 2
   7    3   13 1
   8    4    5 1
   9    4    6 1
  10    6   32 1
  11    6   33 1
  12    7    8 ar
  13    7   12 ar
  14    8    9 ar
  15    8   34 1
  16    9   10 ar
  17    9   35 1
  18   10   11 ar
  19   10   36 1
  20   11   12 ar
  21   11   37 1
  22   12   38 1
  23   13   14 2
  24   13   21 1
  25   15   16 ar
  26   15   20 ar
  27   16   17 ar
  28   16   39 1
  29   17   18 ar
  30   17   40 1
  31   18   19 ar
  32   18   22 1
  33   19   20 ar
  34   19   41 1
  35   20   42 1
  36   21   23 ar
  37   21   27 ar
  38   22   43 1
  39   22   44 1
  40   22   45 1
  41   23   24 ar
  42   23   46 1
  43   24   25 ar
  44   24   47 1
  45   25   26 ar
  46   25   28 ar
  47   26   27 ar
  48   26   31 ar
  49   27   48 1
  50   28   29 ar
  51   28   49 1
  52   29   30 ar
  53   29   50 1
  54   30   31 ar
  55   30   51 1
  56   31   52 1

#	End of record

