#	Name: ASD03330589
#	Creating user name:	WinNT
#	Creation time:	15. 06. 2019 20:37

#	Modifying user name:	WinNT
#	Modification time:	15. 06. 2019 20:37

#	Program:	/corina/corina34_cracker 3.40 0067  02.08.2006

@<TRIPOS>MOLECULE
ASD03330589
  66   68    0    0    0
SMALL
NO_CHARGES


@<TRIPOS>ATOM
   1 C1            -0.3259     1.1669     0.8345 C.2     
   2 N2            -0.3578    -0.1666     1.0665 N.pl3   
   3 C3             0.9796     1.5527     0.8849 C.2     
   4 N4             1.7248     0.4527     1.1283 N.2     
   5 C5             0.9297    -0.5860     1.2331 C.2     
   6 C6             1.3578    -1.9789     1.4895 C.ar    
   7 C7             1.4878     2.9243     0.7053 C.2     
   8 O8             0.7130     3.8365     0.4892 O.2     
   9 C9             3.3166     4.5312     0.6019 C.3     
  10 N10            2.8113     3.1677     0.7805 N.am    
  11 C11            3.4976     4.8166    -0.8903 C.3     
  12 C12            2.1328     4.8024    -1.5816 C.3     
  13 C13            4.1469     6.1901    -1.0717 C.3     
  14 C14            4.3943     3.7428    -1.5098 C.3     
  15 C15            4.6422     4.6717     1.3047 C.2     
  16 N16            5.1792     5.8936     1.4925 N.am    
  17 O17            5.2259     3.6854     1.7014 O.2     
  18 C18            6.5007     6.0257     2.1108 C.3     
  19 C19           -1.5690    -0.9887     1.1364 C.3     
  20 C20           -2.4714    -0.6573    -0.0562 C.3     
  21 C21           -3.3835     0.5132     0.2976 C.3     
  22 N22           -2.7078     1.4534     1.1942 N.3     
  23 C23           -1.5210     2.0411     0.5553 C.3     
  24 C24           -3.6313     2.4997     1.6528 C.3     
  25 C25            0.9147    -4.1578     2.3966 C.ar    
  26 C26            2.1591    -4.5856     1.9694 C.ar    
  27 C27            3.0071    -3.7150     1.3085 C.ar    
  28 C28            2.6137    -2.4148     1.0664 C.ar    
  29 C29            0.5096    -2.8601     2.1606 C.ar    
  30 S30            2.6691    -6.2442     2.2753 S.o2    
  31 O31            4.0882    -6.1754     2.3008 O.2     
  32 O32            1.9335    -6.6301     3.4282 O.2     
  33 C33            2.1027    -7.1676     0.8202 C.3     
  34 H34            2.6047     5.2407     1.0238 H       
  35 H35            3.4293     2.4402     0.9529 H       
  36 H36            1.4940     5.5674    -1.1402 H       
  37 H37            2.2618     5.0057    -2.6446 H       
  38 H38            1.6702     3.8239    -1.4523 H       
  39 H39            5.1051     6.2104    -0.5526 H       
  40 H40            4.3047     6.3801    -2.1334 H       
  41 H41            3.4934     6.9584    -0.6583 H       
  42 H42            3.9318     2.7643    -1.3806 H       
  43 H43            4.5233     3.9462    -2.5729 H       
  44 H44            5.3667     3.7530    -1.0173 H       
  45 H45            4.6907     6.6854     1.2182 H       
  46 H46            6.4794     5.5911     3.1102 H       
  47 H47            7.2400     5.5037     1.5033 H       
  48 H48            6.7660     7.0807     2.1791 H       
  49 H49           -1.2957    -2.0434     1.1043 H       
  50 H50           -2.0998    -0.7772     2.0646 H       
  51 H51           -1.8547    -0.3898    -0.9142 H       
  52 H52           -3.0786    -1.5279    -0.3044 H       
  53 H53           -3.6695     1.0331    -0.6167 H       
  54 H54           -4.2800     0.1330     0.7874 H       
  55 H55           -1.3456     3.0380     0.9597 H       
  56 H56           -1.6812     2.1064    -0.5209 H       
  57 H57           -4.4623     2.0414     2.1889 H       
  58 H58           -3.1038     3.1843     2.3170 H       
  59 H59           -4.0131     3.0498     0.7927 H       
  60 H60            0.2571    -4.8424     2.9117 H       
  61 H61            3.9773    -4.0549     0.9775 H       
  62 H62            3.2765    -1.7362     0.5501 H       
  63 H63           -0.4619    -2.5272     2.4948 H       
  64 H64            2.5694    -6.7569    -0.0751 H       
  65 H65            2.3791    -8.2167     0.9254 H       
  66 H66            1.0192    -7.0841     0.7361 H       
@<TRIPOS>BOND
   1    1    2 1
   2    1    3 2
   3    1   23 1
   4    2   19 1
   5    2    5 1
   6    3    4 1
   7    3    7 1
   8    4    5 2
   9    5    6 1
  10    6   29 ar
  11    6   28 ar
  12    7    8 2
  13    7   10 am
  14    9   10 1
  15    9   11 1
  16    9   15 1
  17    9   34 1
  18   10   35 1
  19   11   12 1
  20   11   13 1
  21   11   14 1
  22   12   36 1
  23   12   37 1
  24   12   38 1
  25   13   39 1
  26   13   40 1
  27   13   41 1
  28   14   42 1
  29   14   43 1
  30   14   44 1
  31   15   16 am
  32   15   17 2
  33   16   18 1
  34   16   45 1
  35   18   46 1
  36   18   47 1
  37   18   48 1
  38   19   20 1
  39   19   49 1
  40   19   50 1
  41   20   21 1
  42   20   51 1
  43   20   52 1
  44   21   22 1
  45   21   53 1
  46   21   54 1
  47   22   23 1
  48   22   24 1
  49   23   55 1
  50   23   56 1
  51   24   57 1
  52   24   58 1
  53   24   59 1
  54   25   26 ar
  55   25   29 ar
  56   25   60 1
  57   26   27 ar
  58   26   30 1
  59   27   28 ar
  60   27   61 1
  61   28   62 1
  62   29   63 1
  63   30   31 2
  64   30   32 2
  65   30   33 1
  66   33   64 1
  67   33   65 1
  68   33   66 1

#	End of record

