#	Name: ASD02508315
#	Creating user name:	WinNT
#	Creation time:	15. 06. 2019 20:24

#	Modifying user name:	WinNT
#	Modification time:	15. 06. 2019 20:24

#	Program:	/corina/corina34_cracker 3.40 0067  02.08.2006

@<TRIPOS>MOLECULE
ASD02508315
  43   46    0    0    0
SMALL
NO_CHARGES


@<TRIPOS>ATOM
   1 C1            -0.0167     1.3818     0.0096 C.ar    
   2 C2             0.0021    -0.0041     0.0020 C.ar    
   3 C3            -1.2098    -0.6984     0.0103 C.ar    
   4 C4            -2.4045    -0.0112     0.0258 C.ar    
   5 C5            -2.4121     1.3718     0.0328 C.ar    
   6 C6            -1.2168     2.0661     0.0299 C.ar    
   7 S7            -3.9416     2.2464     0.0515 S.o2    
   8 O8            -3.6746     3.5332    -0.4889 O.2     
   9 O9            -4.9154     1.3635    -0.4883 O.2     
  10 C10           -4.3786     2.4969     1.7400 C.ar    
  11 C11           -3.9551     3.6348     2.4009 C.ar    
  12 C12           -4.2969     3.8341     3.7298 C.ar    
  13 C13           -5.0694     2.8884     4.3942 C.ar    
  14 C14           -5.4903     1.7489     3.7257 C.ar    
  15 C15           -5.1489     1.5580     2.3998 C.ar    
  16 O16           -3.8661     4.9554     4.3698 O.3     
  17 C17           -4.5389     5.3014     5.5853 C.3     
  18 C18           -4.6707     4.0333     6.4396 C.3     
  19 O19           -5.4229     3.0681     5.6963 O.3     
  20 N20            1.3062    -0.5013    -0.0131 N.am    
  21 S21            1.7091    -2.1075    -0.0261 S.o2    
  22 O22            2.9998    -2.1498     0.5668 O.2     
  23 O23            0.6003    -2.7519     0.5859 O.2     
  24 C24            1.8027    -2.5365    -1.7861 C.3     
  25 C25            1.4103     1.8820    -0.0013 C.3     
  26 C26            2.2667     0.6053    -0.0163 C.3     
  27 H27           -1.2108    -1.7784     0.0041 H       
  28 H28           -3.3378    -0.5545     0.0321 H       
  29 H29           -1.2211     3.1461     0.0357 H       
  30 H30           -3.3570     4.3691     1.8817 H       
  31 H31           -6.0885     1.0115     4.2403 H       
  32 H32           -5.4778     0.6697     1.8809 H       
  33 H33           -3.9596     6.0500     6.1258 H       
  34 H34           -5.5292     5.6959     5.3578 H       
  35 H35           -3.6807     3.6356     6.6624 H       
  36 H36           -5.1906     4.2683     7.3684 H       
  37 H37            2.5623    -1.9225    -2.2699 H       
  38 H38            2.0659    -3.5891    -1.8900 H       
  39 H39            0.8359    -2.3557    -2.2561 H       
  40 H40            1.5981     2.4765    -0.8954 H       
  41 H41            1.6152     2.4669     0.8954 H       
  42 H42            2.8966     0.5619     0.8722 H       
  43 H43            2.8795     0.5715    -0.9172 H       
@<TRIPOS>BOND
   1    1    2 ar
   2    1   25 1
   3    1    6 ar
   4    2    3 ar
   5    2   20 1
   6    3    4 ar
   7    3   27 1
   8    4    5 ar
   9    4   28 1
  10    5    6 ar
  11    5    7 1
  12    6   29 1
  13    7    8 2
  14    7    9 2
  15    7   10 1
  16   10   11 ar
  17   10   15 ar
  18   11   12 ar
  19   11   30 1
  20   12   13 ar
  21   12   16 1
  22   13   14 ar
  23   13   19 1
  24   14   15 ar
  25   14   31 1
  26   15   32 1
  27   16   17 1
  28   17   18 1
  29   17   33 1
  30   17   34 1
  31   18   19 1
  32   18   35 1
  33   18   36 1
  34   20   21 am
  35   20   26 1
  36   21   22 2
  37   21   23 2
  38   21   24 1
  39   24   37 1
  40   24   38 1
  41   24   39 1
  42   25   26 1
  43   25   40 1
  44   25   41 1
  45   26   42 1
  46   26   43 1

#	End of record

