#	Name: ASD09116339
#	Creating user name:	WinNT
#	Creation time:	15. 06. 2019 21:21

#	Modifying user name:	WinNT
#	Modification time:	15. 06. 2019 21:21

#	Program:	/corina/corina34_cracker 3.40 0067  02.08.2006

@<TRIPOS>MOLECULE
ASD09116339
  71   76    0    0    0
SMALL
NO_CHARGES


@<TRIPOS>ATOM
   1 N1            -0.0295     1.4180     0.1440 N.2     
   2 N2            -0.0207     0.0190     0.2640 N.pl3   
   3 C3             1.2225     1.8076     0.1148 C.2     
   4 N4             2.0157     0.7340     0.2095 N.2     
   5 C5             1.2803    -0.3534     0.3003 C.2     
   6 N6             1.7527    -1.6472     0.4135 N.pl3   
   7 C7            -1.1333    -0.8215     0.3323 C.ar    
   8 N8             1.6572     3.1282     0.0030 N.pl3   
   9 C9             3.0221     3.4264     0.0973 C.ar    
  10 C10            3.5419     4.5223    -0.5798 C.ar    
  11 C11            3.8546     2.6300     0.8720 C.ar    
  12 C12            5.2014     2.9236     0.9660 C.ar    
  13 C13            5.7232     4.0146     0.2857 C.ar    
  14 C14            4.8891     4.8162    -0.4865 C.ar    
  15 N15            7.0892     4.3124     0.3817 N.3     
  16 C16            7.4080     5.5564    -0.3306 C.3     
  17 C17            7.9070     3.1955    -0.1083 C.3     
  18 C18            9.3863     3.4949     0.1453 C.3     
  19 C19            9.7711     4.7891    -0.5770 C.3     
  20 C20            8.8723     5.9263    -0.0837 C.3     
  21 C21           11.2331     5.1263    -0.2776 C.3     
  22 F22            5.3967     5.8784    -1.1494 F       
  23 N23           -1.0314    -2.0872    -0.0449 N.ar    
  24 N24           -2.0270    -2.8997    -0.0108 N.ar    
  25 C25           -3.2226    -2.5149     0.4061 C.ar    
  26 C26           -3.4194    -1.2021     0.8441 C.ar    
  27 C27           -2.3528    -0.3292     0.8041 C.ar    
  28 C28           -4.3843    -3.4339     0.3954 C.ar    
  29 C29           -5.5810    -3.0019    -0.1785 C.ar    
  30 C30           -5.6437    -1.6421    -0.8183 C.3     
  31 C31           -5.7425    -0.5374     0.2303 C.3     
  32 C32           -4.7614    -0.7868     1.3727 C.3     
  33 C33           -4.2976    -4.7067     0.9486 C.ar    
  34 C34           -5.4059    -5.5314     0.9434 C.ar    
  35 C35           -6.5959    -5.0917     0.3923 C.ar    
  36 C36           -6.6839    -3.8286    -0.1669 C.ar    
  37 C37           12.1295     3.9857    -0.7639 C.3     
  38 C38           11.6164     6.4195    -0.9999 C.3     
  39 H39            2.7080    -1.8149     0.4313 H       
  40 H40            1.1291    -2.3875     0.4752 H       
  41 H41            1.0140     3.8401    -0.1400 H       
  42 H42            2.8936     5.1442    -1.1792 H       
  43 H43            3.4491     1.7806     1.4017 H       
  44 H44            5.8482     2.3040     1.5694 H       
  45 H45            7.2442     5.4153    -1.3989 H       
  46 H46            6.7647     6.3579     0.0326 H       
  47 H47            7.6262     2.2822     0.4164 H       
  48 H48            7.7409     3.0655    -1.1777 H       
  49 H49            9.5557     3.6114     1.2157 H       
  50 H50            9.9940     2.6727    -0.2326 H       
  51 H51            9.6387     4.6599    -1.6512 H       
  52 H52            9.1128     6.8412    -0.6251 H       
  53 H53            9.0336     6.0810     0.9832 H       
  54 H54           11.3631     5.2578     0.7966 H       
  55 H55           -2.4581     0.6987     1.1185 H       
  56 H56           -4.7453    -1.4873    -1.4157 H       
  57 H57           -6.5164    -1.5944    -1.4697 H       
  58 H58           -5.5143     0.4212    -0.2358 H       
  59 H59           -6.7569    -0.5098     0.6280 H       
  60 H60           -5.1530    -1.5751     2.0157 H       
  61 H61           -4.6498     0.1276     1.9554 H       
  62 H62           -3.3687    -5.0487     1.3804 H       
  63 H63           -5.3430    -6.5215     1.3702 H       
  64 H64           -7.4614    -5.7376     0.3984 H       
  65 H65           -7.6164    -3.4910    -0.5944 H       
  66 H66           13.1711     4.2260    -0.5507 H       
  67 H67           11.8565     3.0644    -0.2494 H       
  68 H68           11.9996     3.8542    -1.8381 H       
  69 H69           10.9778     7.2321    -0.6534 H       
  70 H70           12.6580     6.6598    -0.7866 H       
  71 H71           11.4865     6.2880    -2.0741 H       
@<TRIPOS>BOND
   1    1    2 1
   2    1    3 2
   3    2    7 1
   4    2    5 1
   5    3    4 1
   6    3    8 1
   7    4    5 2
   8    5    6 1
   9    6   39 1
  10    6   40 1
  11    7   23 ar
  12    7   27 ar
  13    8    9 1
  14    8   41 1
  15    9   10 ar
  16    9   11 ar
  17   10   14 ar
  18   10   42 1
  19   11   12 ar
  20   11   43 1
  21   12   13 ar
  22   12   44 1
  23   13   14 ar
  24   13   15 1
  25   14   22 1
  26   15   17 1
  27   15   16 1
  28   16   20 1
  29   16   45 1
  30   16   46 1
  31   17   18 1
  32   17   47 1
  33   17   48 1
  34   18   19 1
  35   18   49 1
  36   18   50 1
  37   19   20 1
  38   19   21 1
  39   19   51 1
  40   20   52 1
  41   20   53 1
  42   21   37 1
  43   21   38 1
  44   21   54 1
  45   23   24 ar
  46   24   25 ar
  47   25   26 ar
  48   25   28 1
  49   26   27 ar
  50   26   32 1
  51   27   55 1
  52   28   29 ar
  53   28   33 ar
  54   29   30 1
  55   29   36 ar
  56   30   31 1
  57   30   56 1
  58   30   57 1
  59   31   32 1
  60   31   58 1
  61   31   59 1
  62   32   60 1
  63   32   61 1
  64   33   34 ar
  65   33   62 1
  66   34   35 ar
  67   34   63 1
  68   35   36 ar
  69   35   64 1
  70   36   65 1
  71   37   66 1
  72   37   67 1
  73   37   68 1
  74   38   69 1
  75   38   70 1
  76   38   71 1

#	End of record

