#	Name: ASD09116051
#	Creating user name:	WinNT
#	Creation time:	15. 06. 2019 21:20

#	Modifying user name:	WinNT
#	Modification time:	15. 06. 2019 21:20

#	Program:	/corina/corina34_cracker 3.40 0067  02.08.2006

@<TRIPOS>MOLECULE
ASD09116051
  27   28    0    0    0
SMALL
NO_CHARGES


@<TRIPOS>ATOM
   1 C1            -0.0167     1.3800     0.0096 C.ar    
   2 C2             0.0021    -0.0041     0.0020 C.ar    
   3 C3            -1.3038    -0.7471     0.0275 C.3     
   4 C4            -1.5416    -1.2825     1.4395 C.3     
   5 C5            -1.5309    -0.0890     2.4347 C.3     
   6 C6            -2.6005     0.9175     1.9730 C.3     
   7 C7            -1.9475     2.1509     1.3820 C.3     
   8 C8            -1.3619     2.0536     0.0094 C.3     
   9 N9             1.1189     2.0483     0.0024 N.ar    
  10 C10            2.2711     1.4025    -0.0199 C.ar    
  11 N11            2.3348     0.0862    -0.0348 N.ar    
  12 C12            1.2282    -0.6536    -0.0242 C.ar    
  13 O13            1.2972    -2.0069    -0.0383 O.3     
  14 H14           -2.1137    -0.0716    -0.2479 H       
  15 H15           -1.2645    -1.5786    -0.6763 H       
  16 H16           -2.5079    -1.7851     1.4820 H       
  17 H17           -0.7503    -1.9846     1.7023 H       
  18 H18           -1.7658    -0.4431     3.4384 H       
  19 H19           -0.5501     0.3865     2.4303 H       
  20 H20           -3.2345     0.4495     1.2199 H       
  21 H21           -3.2139     1.2081     2.8259 H       
  22 H22           -2.6931     2.9459     1.3682 H       
  23 H23           -1.1523     2.4615     2.0598 H       
  24 H24           -1.2543     3.0577    -0.4009 H       
  25 H25           -2.0417     1.4853    -0.6254 H       
  26 H26            3.1895     1.9708    -0.0264 H       
  27 H27            1.3313    -2.4082     0.8408 H       
@<TRIPOS>BOND
   1    1    2 ar
   2    1    9 ar
   3    1    8 1
   4    2    3 1
   5    2   12 ar
   6    3    4 1
   7    3   14 1
   8    3   15 1
   9    4    5 1
  10    4   16 1
  11    4   17 1
  12    5    6 1
  13    5   18 1
  14    5   19 1
  15    6    7 1
  16    6   20 1
  17    6   21 1
  18    7    8 1
  19    7   22 1
  20    7   23 1
  21    8   24 1
  22    8   25 1
  23    9   10 ar
  24   10   11 ar
  25   10   26 1
  26   11   12 ar
  27   12   13 1
  28   13   27 1

#	End of record

