#	Name: ASD05143083
#	Creating user name:	WinNT
#	Creation time:	15. 06. 2019 20:57

#	Modifying user name:	WinNT
#	Modification time:	15. 06. 2019 20:57

#	Program:	/corina/corina34_cracker 3.40 0067  02.08.2006

@<TRIPOS>MOLECULE
ASD05143083
 145  148    0    0    0
SMALL
NO_CHARGES


@<TRIPOS>ATOM
   1 C1             1.8435     2.6741     1.3964 C.2     
   2 C2             2.4180     1.2879     1.5359 C.3     
   3 N3             2.6568     3.7480     1.4380 N.am    
   4 O4             0.6498     2.8230     1.2418 O.2     
   5 C5             2.0982     5.0955     1.3025 C.3     
   6 C6             1.3898     5.2205    -0.0479 C.3     
   7 C7             1.1103     5.3439     2.4130 C.2     
   8 C8             2.4156     5.0922    -1.1758 C.3     
   9 C9             1.7071     5.2172    -2.5261 C.3     
  10 N10            2.6893     5.0943    -3.6061 N.pl3   
  11 C11            2.2832     5.1751    -4.9171 C.2     
  12 N12            3.2050     5.0597    -5.9307 N.pl3   
  13 N13            1.0243     5.3610    -5.1991 N.2     
  14 O14            0.6189     4.4082     3.0080 O.2     
  15 N15            0.7726     6.6057     2.7449 N.am    
  16 C16           -0.1878     6.8471     3.8245 C.3     
  17 C17            0.0516     8.2364     4.4189 C.3     
  18 C18            1.5304     8.3884     4.7805 C.3     
  19 C19            2.0142     9.7817     4.3739 C.3     
  20 N20            1.5768    10.0703     3.0014 N.3     
  21 C21            2.2169    11.2895     2.4898 C.3     
  22 C22            1.2953    11.9580     1.4677 C.3     
  23 C23            2.1127    12.9023     0.5840 C.3     
  24 C24            1.2027    14.0052     0.0394 C.3     
  25 N25            0.6974    13.5964    -1.2862 N.am    
  26 C26            1.9854    15.2864    -0.0919 C.2     
  27 N27            2.2081    16.0542     0.9932 N.am    
  28 O28            2.4148    15.6265    -1.1739 O.2     
  29 C29           -0.6468    13.4082    -1.3948 C.2     
  30 O30           -1.3703    13.5669    -0.4345 O.2     
  31 C31           -1.2216    13.0001    -2.7268 C.3     
  32 N32           -2.5980    12.4967    -2.5168 N.am    
  33 C33           -1.2548    14.2094    -3.6635 C.3     
  34 C34           -2.7866    11.1747    -2.8055 C.2     
  35 O35           -1.8647    10.4906    -3.1968 O.2     
  36 C36           -4.1605    10.5817    -2.6286 C.3     
  37 N37           -4.0447     9.1099    -2.5975 N.am    
  38 C38           -4.7668    11.0761    -1.3138 C.3     
  39 C39           -4.4662     8.4901    -1.4614 C.2     
  40 O40           -4.9111     9.1377    -0.5374 O.2     
  41 C41           -4.3735     6.9891    -1.3665 C.3     
  42 C42           -1.7142    13.7732    -5.0309 C.2     
  43 C43           -3.1013    13.6320    -5.4802 C.ar    
  44 C44           -3.0347    13.2042    -6.8186 C.ar    
  45 N45           -1.7014    13.0974    -7.1450 N.pl3   
  46 C46           -0.9299    13.4458    -6.0700 C.2     
  47 C47           -4.3430    13.8285    -4.8725 C.ar    
  48 C48           -5.4886    13.6037    -5.5822 C.ar    
  49 C49           -5.4283    13.1809    -6.9032 C.ar    
  50 C50           -4.2140    12.9818    -7.5224 C.ar    
  51 N51           -4.4720     6.5988     0.0588 N.am    
  52 C52           -3.0330     6.5203    -1.9359 C.3     
  53 C53           -3.0033     6.7707    -3.4217 C.ar    
  54 C54           -2.0682     7.6388    -3.9590 C.ar    
  55 C55           -2.0421     7.8681    -5.3244 C.ar    
  56 C56           -2.9490     7.2303    -6.1490 C.ar    
  57 C57           -3.8825     6.3635    -5.6112 C.ar    
  58 C58           -3.9058     6.1295    -4.2491 C.ar    
  59 C59           -1.5896     6.7699     3.2763 C.2     
  60 O60           -2.3757     7.6734     3.4679 O.2     
  61 C61           -6.2478    10.6960    -1.2603 C.3     
  62 C62           -6.8163    11.0516     0.1150 C.3     
  63 N63           -8.2344    10.6876     0.1661 N.pl3   
  64 C64           -8.9616    10.9149     1.3106 C.2     
  65 N65          -10.2925    10.5733     1.3587 N.pl3   
  66 N66           -8.3892    11.4542     2.3500 N.2     
  67 N67           -1.9608     5.6714     2.5626 N.am    
  68 C68           -3.3447     5.6546     2.0483 C.3     
  69 C69           -3.3317     6.0789     0.6024 C.2     
  70 O70           -2.3271     5.9604    -0.0667 O.2     
  71 C71           -4.2050     6.6255     2.8597 C.3     
  72 C72           -4.0985     6.2874     4.3244 C.2     
  73 O73           -3.4031     5.3611     4.6839 O.2     
  74 N74           -4.7761     7.0143     5.2348 N.am    
  75 F75           -1.1822     8.2622    -3.1517 F       
  76 H76            2.9227     1.1989     2.4979 H       
  77 H77            1.6142     0.5539     1.4780 H       
  78 H78            3.1326     1.1083     0.7326 H       
  79 H79            3.6119     3.6286     1.5577 H       
  80 H80            2.9020     5.8295     1.3604 H       
  81 H81            0.6453     4.4300    -0.1421 H       
  82 H82            0.8988     6.1915    -0.1120 H       
  83 H83            3.1601     5.8827    -1.0815 H       
  84 H84            2.9066     4.1212    -1.1116 H       
  85 H85            0.9626     4.4266    -2.6204 H       
  86 H86            1.2161     6.1882    -2.5903 H       
  87 H87            3.6262     4.9559    -3.3962 H       
  88 H88            4.1418     4.9214    -5.7208 H       
  89 H89            2.9184     5.1167    -6.8556 H       
  90 H90            0.7378     5.4180    -6.1241 H       
  91 H91            1.1656     7.3541     2.2690 H       
  92 H92           -0.0592     6.0928     4.6007 H       
  93 H93           -0.2237     8.9967     3.6879 H       
  94 H94           -0.5561     8.3576     5.3156 H       
  95 H95            1.6567     8.2593     5.8554 H       
  96 H96            2.1129     7.6332     4.2529 H       
  97 H97            1.5949    10.5244     5.0527 H       
  98 H98            3.1025     9.8173     4.4236 H       
  99 H99            1.7549     9.2857     2.3926 H       
 100 H100           2.4027    11.9764     3.3155 H       
 101 H101           3.1621    11.0309     2.0124 H       
 102 H102           0.8266    11.1943     0.8470 H       
 103 H103           0.5245    12.5251     1.9897 H       
 104 H104           2.9132    13.3496     1.1733 H       
 105 H105           2.5420    12.3422    -0.2466 H       
 106 H106           0.3642    14.1557     0.7193 H       
 107 H107           1.2926    13.4687    -2.0414 H       
 108 H108           1.8647    15.7821     1.8586 H       
 109 H109           2.7119    16.8788     0.9087 H       
 110 H110          -0.6073    12.2130    -3.1643 H       
 111 H111          -3.3154    13.0655    -2.1964 H       
 112 H112          -1.9448    14.9554    -3.2692 H       
 113 H113          -0.2563    14.6404    -3.7360 H       
 114 H114          -4.7971    10.8803    -3.4615 H       
 115 H115          -3.6869     8.6105    -3.3482 H       
 116 H116          -4.2429    10.6153    -0.4762 H       
 117 H117          -4.6673    12.1598    -1.2526 H       
 118 H118          -5.1909     6.5358    -1.9273 H       
 119 H119          -1.3598    12.8202    -8.0096 H       
 120 H120           0.1500    13.4494    -6.0570 H       
 121 H121          -4.3976    14.1566    -3.8450 H       
 122 H122          -6.4488    13.7558    -5.1117 H       
 123 H123          -6.3426    13.0071    -7.4511 H       
 124 H124          -4.1776    12.6530    -8.5505 H       
 125 H125          -5.2890     6.7053     0.5707 H       
 126 H126          -2.2227     7.0711    -1.4583 H       
 127 H127          -2.9099     5.4543    -1.7447 H       
 128 H128          -1.3133     8.5454    -5.7446 H       
 129 H129          -2.9291     7.4092    -7.2139 H       
 130 H130          -4.5912     5.8657    -6.2565 H       
 131 H131          -4.6353     5.4522    -3.8302 H       
 132 H132          -6.7914    11.2430    -2.0306 H       
 133 H133          -6.3544     9.6248    -1.4316 H       
 134 H134          -6.2727    10.5045     0.8853 H       
 135 H135          -6.7097    12.1227     0.2863 H       
 136 H136          -8.6604    10.2863    -0.6074 H       
 137 H137         -10.7184    10.1720     0.5851 H       
 138 H138         -10.8055    10.7337     2.1661 H       
 139 H139          -8.9023    11.6146     3.1575 H       
 140 H140          -1.3476     4.9374     2.4007 H       
 141 H141          -3.7524     4.6470     2.1296 H       
 142 H142          -3.8554     7.6448     2.6958 H       
 143 H143          -5.2444     6.5424     2.5422 H       
 144 H144          -5.3323     7.7552     4.9472 H       
 145 H145          -4.7076     6.7967     6.1776 H       
@<TRIPOS>BOND
   1    1    2 1
   2    1    3 am
   3    1    4 2
   4    2   76 1
   5    2   77 1
   6    2   78 1
   7    3    5 1
   8    3   79 1
   9    5    6 1
  10    5    7 1
  11    5   80 1
  12    6    8 1
  13    6   81 1
  14    6   82 1
  15    7   14 2
  16    7   15 am
  17    8    9 1
  18    8   83 1
  19    8   84 1
  20    9   10 1
  21    9   85 1
  22    9   86 1
  23   10   11 1
  24   10   87 1
  25   11   12 1
  26   11   13 2
  27   12   88 1
  28   12   89 1
  29   13   90 1
  30   15   16 1
  31   15   91 1
  32   16   17 1
  33   16   59 1
  34   16   92 1
  35   17   18 1
  36   17   93 1
  37   17   94 1
  38   18   19 1
  39   18   95 1
  40   18   96 1
  41   19   20 1
  42   19   97 1
  43   19   98 1
  44   20   21 1
  45   20   99 1
  46   21   22 1
  47   21  100 1
  48   21  101 1
  49   22   23 1
  50   22  102 1
  51   22  103 1
  52   23   24 1
  53   23  104 1
  54   23  105 1
  55   24   25 1
  56   24   26 1
  57   24  106 1
  58   25   29 am
  59   25  107 1
  60   26   27 am
  61   26   28 2
  62   27  108 1
  63   27  109 1
  64   29   30 2
  65   29   31 1
  66   31   32 1
  67   31   33 1
  68   31  110 1
  69   32   34 am
  70   32  111 1
  71   33   42 1
  72   33  112 1
  73   33  113 1
  74   34   35 2
  75   34   36 1
  76   36   37 1
  77   36   38 1
  78   36  114 1
  79   37   39 am
  80   37  115 1
  81   38   61 1
  82   38  116 1
  83   38  117 1
  84   39   40 2
  85   39   41 1
  86   41   51 1
  87   41   52 1
  88   41  118 1
  89   42   43 1
  90   42   46 2
  91   43   44 ar
  92   43   47 ar
  93   44   45 1
  94   44   50 ar
  95   45   46 1
  96   45  119 1
  97   46  120 1
  98   47   48 ar
  99   47  121 1
 100   48   49 ar
 101   48  122 1
 102   49   50 ar
 103   49  123 1
 104   50  124 1
 105   51   69 am
 106   51  125 1
 107   52   53 1
 108   52  126 1
 109   52  127 1
 110   53   54 ar
 111   53   58 ar
 112   54   55 ar
 113   54   75 1
 114   55   56 ar
 115   55  128 1
 116   56   57 ar
 117   56  129 1
 118   57   58 ar
 119   57  130 1
 120   58  131 1
 121   59   60 2
 122   59   67 am
 123   61   62 1
 124   61  132 1
 125   61  133 1
 126   62   63 1
 127   62  134 1
 128   62  135 1
 129   63   64 1
 130   63  136 1
 131   64   65 1
 132   64   66 2
 133   65  137 1
 134   65  138 1
 135   66  139 1
 136   67   68 1
 137   67  140 1
 138   68   69 1
 139   68   71 1
 140   68  141 1
 141   69   70 2
 142   71   72 1
 143   71  142 1
 144   71  143 1
 145   72   73 2
 146   72   74 am
 147   74  144 1
 148   74  145 1

#	End of record

