#	Name: ASD03090015
#	Creating user name:	WinNT
#	Creation time:	15. 06. 2019 20:28

#	Modifying user name:	WinNT
#	Modification time:	15. 06. 2019 20:28

#	Program:	/corina/corina34_cracker 3.40 0067  02.08.2006

@<TRIPOS>MOLECULE
ASD03090015
  38   40    0    0    0
SMALL
NO_CHARGES


@<TRIPOS>ATOM
   1 C1             0.1198     1.2027    -0.6572 C.ar    
   2 C2             0.1909    -0.0584    -1.2247 C.ar    
   3 C3             1.4199    -0.5997    -1.5625 C.ar    
   4 C4             2.5778     0.1175    -1.3341 C.ar    
   5 C5             2.5089     1.3828    -0.7654 C.ar    
   6 C6             1.2751     1.9237    -0.4274 C.ar    
   7 N7             3.6805     2.1109    -0.5327 N.pl3   
   8 C8             3.6468     3.4884    -0.5317 C.2     
   9 N9             2.6033     4.2059    -0.8402 N.2     
  10 C10            2.7332     5.5054    -0.7907 C.2     
  11 C11            3.9817     5.9264    -0.4113 C.2     
  12 S12            4.9655     4.4942    -0.1188 S.3     
  13 C13            4.4036     7.2721    -0.2734 C.2     
  14 C14            5.8261     7.5777    -0.0057 C.ar    
  15 O15            3.5950     8.1773    -0.3753 O.2     
  16 C16            1.6115     6.4559    -1.1213 C.3     
  17 F17           -0.9405    -0.7620    -1.4486 F       
  18 C18            6.8231     6.6934    -0.4209 C.ar    
  19 C19            8.1477     6.9843    -0.1681 C.ar    
  20 C20            8.4888     8.1494     0.4959 C.ar    
  21 C21            7.5053     9.0299     0.9105 C.ar    
  22 C22            6.1774     8.7542     0.6581 C.ar    
  23 C23            9.9378     8.4604     0.7690 C.3     
  24 H24           -0.8400     1.6247    -0.3982 H       
  25 H25            1.4730    -1.5836    -2.0047 H       
  26 H26            3.5361    -0.3053    -1.5970 H       
  27 H27            1.2192     2.9076     0.0146 H       
  28 H28            4.5166     1.6461    -0.3720 H       
  29 H29            1.0447     6.6776    -0.2171 H       
  30 H30            2.0253     7.3795    -1.5262 H       
  31 H31            0.9533     5.9983    -1.8598 H       
  32 H32            6.5581     5.7834    -0.9386 H       
  33 H33            8.9201     6.3010    -0.4888 H       
  34 H34            7.7781     9.9373     1.4289 H       
  35 H35            5.4107     9.4425     0.9819 H       
  36 H36           10.3507     9.0291    -0.0641 H       
  37 H37           10.0172     9.0471     1.6842 H       
  38 H38           10.4936     7.5299     0.8846 H       
@<TRIPOS>BOND
   1    1    2 ar
   2    1    6 ar
   3    1   24 1
   4    2    3 ar
   5    2   17 1
   6    3    4 ar
   7    3   25 1
   8    4    5 ar
   9    4   26 1
  10    5    6 ar
  11    5    7 1
  12    6   27 1
  13    7    8 1
  14    7   28 1
  15    8    9 2
  16    8   12 1
  17    9   10 1
  18   10   11 2
  19   10   16 1
  20   11   12 1
  21   11   13 1
  22   13   14 1
  23   13   15 2
  24   14   18 ar
  25   14   22 ar
  26   16   29 1
  27   16   30 1
  28   16   31 1
  29   18   19 ar
  30   18   32 1
  31   19   20 ar
  32   19   33 1
  33   20   21 ar
  34   20   23 1
  35   21   22 ar
  36   21   34 1
  37   22   35 1
  38   23   36 1
  39   23   37 1
  40   23   38 1

#	End of record

