#	Name: ASD03930141
#	Creating user name:	WinNT
#	Creation time:	15. 06. 2019 20:47

#	Modifying user name:	WinNT
#	Modification time:	15. 06. 2019 20:47

#	Program:	/corina/corina34_cracker 3.40 0067  02.08.2006

@<TRIPOS>MOLECULE
ASD03930141
  37   38    0    0    0
SMALL
NO_CHARGES


@<TRIPOS>ATOM
   1 C1            -1.6000     1.7632     0.9197 C.3     
   2 C2            -1.7327     0.2647     1.1987 C.3     
   3 C3            -3.1959    -0.0716     1.4931 C.3     
   4 S4            -1.1770    -0.6719    -0.2520 S.o2    
   5 O5            -2.0666    -0.4762    -1.3427 O.2     
   6 O6             0.2281    -0.5432    -0.4204 O.2     
   7 N7            -1.3938    -2.2579     0.1723 N.am    
   8 C8            -1.5148    -3.4686     2.3300 C.3     
   9 C9            -0.6001    -2.8412     1.2567 C.3     
  10 C10            0.2044    -4.0588     0.7542 C.3     
  11 C11            0.2184    -5.0306     1.9147 C.ar    
  12 C12            1.0312    -6.1250     2.1591 C.ar    
  13 C13            0.8576    -6.8778     3.3039 C.ar    
  14 C14           -0.1304    -6.5385     4.2095 C.ar    
  15 C15           -0.9419    -5.4476     3.9675 C.ar    
  16 C16           -0.7694    -4.6914     2.8201 C.ar    
  17 C17            1.7447    -8.0675     3.5660 C.3     
  18 O18            2.8960    -7.6502     4.3025 O.3     
  19 H19           -1.9339     2.3260     1.7914 H       
  20 H20           -0.5575     2.0028     0.7100 H       
  21 H21           -2.2140     2.0283     0.0590 H       
  22 H22           -1.1186    -0.0004     2.0594 H       
  23 H23           -3.8197     0.2646     0.6649 H       
  24 H24           -3.3036    -1.1495     1.6148 H       
  25 H25           -3.5068     0.4303     2.4093 H       
  26 H26           -2.0463    -2.8007    -0.2973 H       
  27 H27           -1.6719    -2.7676     3.1498 H       
  28 H28           -2.4694    -3.7583     1.8909 H       
  29 H29            0.0610    -2.0957     1.6987 H       
  30 H30           -0.2878    -4.5073    -0.1087 H       
  31 H31            1.2211    -3.7608     0.4982 H       
  32 H32            1.8030    -6.3908     1.4520 H       
  33 H33           -0.2678    -7.1263     5.1051 H       
  34 H34           -1.7135    -5.1832     4.6754 H       
  35 H35            1.1944    -8.8110     4.1425 H       
  36 H36            2.0585    -8.5027     2.6172 H       
  37 H37            3.5128    -8.3663     4.5072 H       
@<TRIPOS>BOND
   1    1    2 1
   2    1   19 1
   3    1   20 1
   4    1   21 1
   5    2    3 1
   6    2    4 1
   7    2   22 1
   8    3   23 1
   9    3   24 1
  10    3   25 1
  11    4    5 2
  12    4    6 2
  13    4    7 am
  14    7    9 1
  15    7   26 1
  16    8    9 1
  17    8   16 1
  18    8   27 1
  19    8   28 1
  20    9   10 1
  21    9   29 1
  22   10   11 1
  23   10   30 1
  24   10   31 1
  25   11   12 ar
  26   11   16 ar
  27   12   13 ar
  28   12   32 1
  29   13   14 ar
  30   13   17 1
  31   14   15 ar
  32   14   33 1
  33   15   16 ar
  34   15   34 1
  35   17   18 1
  36   17   35 1
  37   17   36 1
  38   18   37 1

#	End of record

