#	Name: ASD01820037
#	Creating user name:	WinNT
#	Creation time:	15. 06. 2019 19:36

#	Modifying user name:	WinNT
#	Modification time:	15. 06. 2019 19:36

#	Program:	/corina/corina34_cracker 3.40 0067  02.08.2006

@<TRIPOS>MOLECULE
ASD01820037
  99  103    0    0    0
SMALL
NO_CHARGES


@<TRIPOS>ATOM
   1 C1            -2.9581     5.5459    -0.7578 C.ar    
   2 C2            -3.1964     4.0596    -0.6965 C.3     
   3 C3            -2.0532     3.3292    -1.4019 C.3     
   4 C4            -0.7304     3.8580    -0.9164 C.2     
   5 N5            -0.5818     5.1584    -0.6040 N.am    
   6 C6            -1.6615     6.0404    -0.7090 C.ar    
   7 C7             1.5408     6.1116    -1.3574 C.3     
   8 C8             0.7203     5.6532    -0.1501 C.3     
   9 O9             0.2124     3.1032    -0.8051 O.2     
  10 C10            2.9006     6.6284    -0.8834 C.3     
  11 N11            3.6883     7.0685    -2.0426 N.3     
  12 C12            4.8966     7.7859    -1.6161 C.3     
  13 C13           -1.4413     7.4104    -0.7644 C.ar    
  14 C14           -2.5124     8.2760    -0.8685 C.ar    
  15 C15           -3.8025     7.7801    -0.9170 C.ar    
  16 C16           -4.0246     6.4161    -0.8679 C.ar    
  17 C17            2.8761     7.8890    -2.9500 C.3     
  18 C18            3.6819     8.2068    -4.2116 C.3     
  19 C19            4.9586     8.9562    -3.8207 C.3     
  20 C20            5.7627     8.1006    -2.8379 C.3     
  21 O21           17.1889    15.6378    -9.1160 O.3     
  22 C22           18.0432    15.9676   -10.1201 C.2     
  23 C23           19.1894    16.7399    -9.9391 C.2     
  24 C24           19.5854    17.2781    -8.6212 C.2     
  25 C25           20.6143    18.0951    -8.5610 C.2     
  26 C26           18.7905    16.8717    -7.4137 C.3     
  27 N27           19.5466    17.1571    -6.1878 N.3     
  28 C28           20.0236    18.5499    -6.1956 C.3     
  29 C29           21.1024    18.6918    -7.2704 C.3     
  30 C30           18.7355    16.8851    -4.9936 C.3     
  31 N31           19.8887    16.9519   -11.0256 N.2     
  32 S32           19.1867    16.2426   -12.2272 S.3     
  33 N33           17.8840    15.5905   -11.3637 N.2     
  34 C34            5.7981     9.2233    -5.0716 C.3     
  35 C35            7.0103    10.0792    -4.6992 C.3     
  36 C36            7.8498    10.3463    -5.9501 C.3     
  37 C37            9.0620    11.2022    -5.5776 C.3     
  38 C38            9.9015    11.4693    -6.8285 C.3     
  39 C39           11.1138    12.3252    -6.4561 C.3     
  40 C40           11.9533    12.5923    -7.7070 C.3     
  41 C41           13.1655    13.4482    -7.3345 C.3     
  42 C42           14.0050    13.7153    -8.5855 C.3     
  43 C43           15.2172    14.5713    -8.2130 C.3     
  44 C44           16.0567    14.8383    -9.4639 C.3     
  45 H45           -3.2425     3.7418     0.3451 H       
  46 H46           -4.1386     3.8222    -1.1905 H       
  47 H47           -2.1176     2.2626    -1.1867 H       
  48 H48           -2.1328     3.4856    -2.4776 H       
  49 H49            1.6879     5.2719    -2.0367 H       
  50 H50            1.0094     6.9096    -1.8760 H       
  51 H51            0.5732     6.4929     0.5292 H       
  52 H52            1.2516     4.8552     0.3685 H       
  53 H53            2.7535     7.4681    -0.2042 H       
  54 H54            3.4319     5.8304    -0.3649 H       
  55 H55            4.6120     8.7156    -1.1235 H       
  56 H56            5.4613     7.1648    -0.9208 H       
  57 H57           -0.4341     7.7983    -0.7257 H       
  58 H58           -2.3423     9.3417    -0.9118 H       
  59 H59           -4.6382     8.4595    -0.9981 H       
  60 H60           -5.0332     6.0317    -0.9062 H       
  61 H61            1.9733     7.3429    -3.2235 H       
  62 H62            2.6010     8.8183    -2.4511 H       
  63 H63            3.9455     7.2785    -4.7185 H       
  64 H64            3.0843     8.8289    -4.8780 H       
  65 H65            4.6953     9.9033    -3.3497 H       
  66 H66            6.6518     8.6467    -2.5228 H       
  67 H67            6.0591     7.1706    -3.3231 H       
  68 H68           21.1298    18.3472    -9.4759 H       
  69 H69           17.8519    17.4257    -7.3962 H       
  70 H70           18.5760    15.8043    -7.4653 H       
  71 H71           19.1944    19.2196    -6.4233 H       
  72 H72           20.4420    18.7990    -5.2204 H       
  73 H73           22.0041    18.1698    -6.9503 H       
  74 H74           21.3289    19.7475    -7.4197 H       
  75 H75           18.4406    15.8358    -4.9860 H       
  76 H76           19.3196    17.1049    -4.0999 H       
  77 H77           17.8446    17.5129    -5.0089 H       
  78 H78            6.1372     8.2759    -5.4907 H       
  79 H79            5.1934     9.7511    -5.8091 H       
  80 H80            6.6712    11.0266    -4.2801 H       
  81 H81            7.6150     9.5514    -3.9617 H       
  82 H82            8.1889     9.3989    -6.3692 H       
  83 H83            7.2451    10.8741    -6.6876 H       
  84 H84            8.7229    12.1496    -5.1585 H       
  85 H85            9.6667    10.6744    -4.8401 H       
  86 H86           10.2406    10.5219    -7.2476 H       
  87 H87            9.2969    11.9971    -7.5660 H       
  88 H88           10.7747    13.2726    -6.0370 H       
  89 H89           11.7184    11.7974    -5.7186 H       
  90 H90           12.2924    11.6449    -8.1261 H       
  91 H91           11.3486    13.1201    -8.4445 H       
  92 H92           12.8264    14.3956    -6.9155 H       
  93 H93           13.7702    12.9204    -6.5970 H       
  94 H94           14.3441    12.7679    -9.0045 H       
  95 H95           13.4003    14.2431    -9.3230 H       
  96 H96           14.8781    15.5186    -7.7939 H       
  97 H97           15.8219    14.0434    -7.4755 H       
  98 H98           15.4520    15.3661   -10.2014 H       
  99 H99           16.3958    13.8910    -9.8830 H       
@<TRIPOS>BOND
   1    1    2 1
   2    1    6 ar
   3    1   16 ar
   4    2    3 1
   5    2   45 1
   6    2   46 1
   7    3    4 1
   8    3   47 1
   9    3   48 1
  10    4    5 am
  11    4    9 2
  12    5    6 1
  13    5    8 1
  14    6   13 ar
  15    7    8 1
  16    7   10 1
  17    7   49 1
  18    7   50 1
  19    8   51 1
  20    8   52 1
  21   10   11 1
  22   10   53 1
  23   10   54 1
  24   11   12 1
  25   11   17 1
  26   12   20 1
  27   12   55 1
  28   12   56 1
  29   13   14 ar
  30   13   57 1
  31   14   15 ar
  32   14   58 1
  33   15   16 ar
  34   15   59 1
  35   16   60 1
  36   17   18 1
  37   17   61 1
  38   17   62 1
  39   18   19 1
  40   18   63 1
  41   18   64 1
  42   19   34 1
  43   19   20 1
  44   19   65 1
  45   20   66 1
  46   20   67 1
  47   21   44 1
  48   21   22 1
  49   22   23 1
  50   22   33 2
  51   23   24 1
  52   23   31 2
  53   24   25 2
  54   24   26 1
  55   25   29 1
  56   25   68 1
  57   26   27 1
  58   26   69 1
  59   26   70 1
  60   27   28 1
  61   27   30 1
  62   28   29 1
  63   28   71 1
  64   28   72 1
  65   29   73 1
  66   29   74 1
  67   30   75 1
  68   30   76 1
  69   30   77 1
  70   31   32 1
  71   32   33 1
  72   34   35 1
  73   34   78 1
  74   34   79 1
  75   35   36 1
  76   35   80 1
  77   35   81 1
  78   36   37 1
  79   36   82 1
  80   36   83 1
  81   37   38 1
  82   37   84 1
  83   37   85 1
  84   38   39 1
  85   38   86 1
  86   38   87 1
  87   39   40 1
  88   39   88 1
  89   39   89 1
  90   40   41 1
  91   40   90 1
  92   40   91 1
  93   41   42 1
  94   41   92 1
  95   41   93 1
  96   42   43 1
  97   42   94 1
  98   42   95 1
  99   43   44 1
 100   43   96 1
 101   43   97 1
 102   44   98 1
 103   44   99 1

#	End of record

