#	Name: ASD01870706
#	Creating user name:	WinNT
#	Creation time:	15. 06. 2019 19:39

#	Modifying user name:	WinNT
#	Modification time:	15. 06. 2019 19:39

#	Program:	/corina/corina34_cracker 3.40 0067  02.08.2006

@<TRIPOS>MOLECULE
ASD01870706
  45   48    0    0    0
SMALL
NO_CHARGES


@<TRIPOS>ATOM
   1 C1            -0.0169     1.3939     0.0097 C.ar    
   2 C2             0.0021    -0.0041     0.0020 C.ar    
   3 C3             2.4074     0.0226    -0.0216 C.ar    
   4 C4             2.3866     1.4204    -0.0136 C.ar    
   5 C5             1.1650     2.0983     0.0022 C.ar    
   6 C6            -1.0777    -1.0089     0.0070 C.2     
   7 N7            -0.5610    -2.2495    -0.0046 N.am    
   8 C8             0.9029    -2.1515    -0.0182 C.3     
   9 C9             1.2272    -0.6782    -0.0133 C.ar    
  10 C10            3.6545     2.1796    -0.0221 C.2     
  11 O11            4.8993     1.6697    -0.0378 O.3     
  12 N12            5.7392     2.5391    -0.0412 N.2     
  13 C13            5.2014     3.7344    -0.0286 C.2     
  14 C14            3.7949     3.5388    -0.0214 C.2     
  15 C15           -1.3325    -3.4949    -0.0035 C.3     
  16 C16           -2.2022    -3.5548     1.2538 C.3     
  17 C17           -2.2261    -3.5423    -1.2445 C.3     
  18 O18           -2.2657    -0.7515     0.0201 O.2     
  19 C19            5.9192     5.0332    -0.0278 C.ar    
  20 C20            7.3178     5.0710    -0.0419 C.ar    
  21 C21            7.9414     6.3035    -0.0411 C.ar    
  22 C22            7.1655     7.4570    -0.0263 C.ar    
  23 N23            5.8443     7.3868    -0.0132 N.ar    
  24 C24            5.2107     6.2312    -0.0189 C.ar    
  25 O25            7.7710     8.6706    -0.0250 O.3     
  26 C26            6.9213     9.8195    -0.0095 C.3     
  27 H27           -0.9595     1.9210     0.0170 H       
  28 H28            3.3499    -0.5046    -0.0341 H       
  29 H29            1.1484     3.1782     0.0082 H       
  30 H30            1.3185    -2.6295     0.8689 H       
  31 H31            1.3014    -2.6199    -0.9181 H       
  32 H32            3.0179     4.2889    -0.0147 H       
  33 H33           -0.6503    -4.3449    -0.0143 H       
  34 H34           -2.8844    -2.7048     1.2646 H       
  35 H35           -2.7763    -4.4814     1.2547 H       
  36 H36           -1.5656    -3.5210     2.1379 H       
  37 H37           -2.9083    -2.6923    -1.2337 H       
  38 H38           -1.6065    -3.4996    -2.1402 H       
  39 H39           -2.8002    -4.4689    -1.2437 H       
  40 H40            7.8957     4.1587    -0.0529 H       
  41 H41            9.0193     6.3703    -0.0514 H       
  42 H42            4.1309     6.2135    -0.0121 H       
  43 H43            6.2834     9.8115    -0.8933 H       
  44 H44            6.3010     9.8007     0.8866 H       
  45 H45            7.5316    10.7227    -0.0101 H       
@<TRIPOS>BOND
   1    1    2 ar
   2    1    5 ar
   3    1   27 1
   4    2    9 ar
   5    2    6 1
   6    3    4 ar
   7    3    9 ar
   8    3   28 1
   9    4    5 ar
  10    4   10 1
  11    5   29 1
  12    6    7 am
  13    6   18 2
  14    7    8 1
  15    7   15 1
  16    8    9 1
  17    8   30 1
  18    8   31 1
  19   10   11 1
  20   10   14 2
  21   11   12 1
  22   12   13 2
  23   13   14 1
  24   13   19 1
  25   14   32 1
  26   15   16 1
  27   15   17 1
  28   15   33 1
  29   16   34 1
  30   16   35 1
  31   16   36 1
  32   17   37 1
  33   17   38 1
  34   17   39 1
  35   19   20 ar
  36   19   24 ar
  37   20   21 ar
  38   20   40 1
  39   21   22 ar
  40   21   41 1
  41   22   23 ar
  42   22   25 1
  43   23   24 ar
  44   24   42 1
  45   25   26 1
  46   26   43 1
  47   26   44 1
  48   26   45 1

#	End of record

