#	Name: ASD00170434
#	Creating user name:	WinNT
#	Creation time:	15. 06. 2019 18:32

#	Modifying user name:	WinNT
#	Modification time:	15. 06. 2019 18:32

#	Program:	/corina/corina34_cracker 3.40 0067  02.08.2006

@<TRIPOS>MOLECULE
ASD00170434
  69   73    0    0    0
SMALL
NO_CHARGES


@<TRIPOS>ATOM
   1 C1            -0.8174    -4.7755    -2.5825 C.2     
   2 C2            -1.6201    -4.4742    -1.5020 C.2     
   3 C3            -1.2448    -3.3057    -0.8348 C.2     
   4 C4            -0.1763    -2.6972    -1.3692 C.2     
   5 S5             0.4074    -3.6011    -2.7573 S.3     
   6 C6            -1.9739    -2.7775     0.3737 C.3     
   7 N7            -0.9784    -5.8721    -3.4006 N.pl3   
   8 C8            -2.7577    -5.3004    -1.0935 C.2     
   9 C9            -4.1183    -4.9730    -1.5706 C.ar    
  10 O10           -2.5833    -6.2572    -0.3609 O.2     
  11 C11           -5.1877    -5.8203    -1.2744 C.ar    
  12 C12           -6.4544    -5.5096    -1.7221 C.ar    
  13 C13           -6.6669    -4.3598    -2.4648 C.ar    
  14 C14           -5.6099    -3.5153    -2.7618 C.ar    
  15 C15           -4.3398    -3.8122    -2.3143 C.ar    
  16 Cl16          -8.2642    -3.9759    -3.0259 Cl      
  17 N17           -1.1682    -3.0225     1.5774 N.3     
  18 C18            0.4263    -1.4496    -0.8607 C.ar    
  19 C19           -1.8118    -2.4496     2.7672 C.3     
  20 C20           -0.9127    -4.4579     1.7568 C.3     
  21 C21           -1.8146    -0.9233     2.6605 C.3     
  22 C22           -2.4849    -0.3266     3.8997 C.3     
  23 C23           -3.9252    -0.8339     3.9945 C.3     
  24 C24           -3.9224    -2.3602     4.1013 C.3     
  25 C25           -3.2521    -2.9568     2.8621 C.3     
  26 C26            0.3298    -4.8584     0.9589 C.3     
  27 C27            0.5959    -6.3534     1.1457 C.3     
  28 C28            0.8253    -6.6491     2.6292 C.3     
  29 C29           -0.4171    -6.2486     3.4272 C.3     
  30 C30           -0.6833    -4.7536     3.2403 C.3     
  31 C31            1.6118    -0.9725    -1.4240 C.ar    
  32 C32            2.1635     0.1979    -0.9363 C.ar    
  33 C33            1.5141     0.8564     0.0996 C.ar    
  34 C34            0.3433     0.3290     0.6114 C.ar    
  35 N35           -0.1663    -0.7852     0.1265 N.ar    
  36 H36           -2.1392    -1.7063     0.2589 H       
  37 H37           -2.9337    -3.2851     0.4695 H       
  38 H38           -1.6498    -6.5398    -3.1902 H       
  39 H39           -0.4203    -5.9766    -4.1870 H       
  40 H40           -5.0231    -6.7174    -0.6961 H       
  41 H41           -7.2824    -6.1643    -1.4937 H       
  42 H42           -5.7815    -2.6204    -3.3415 H       
  43 H43           -3.5165    -3.1529    -2.5462 H       
  44 H44           -1.2612    -2.7504     3.6585 H       
  45 H45           -1.7717    -5.0270     1.4015 H       
  46 H46           -0.7885    -0.5619     2.5929 H       
  47 H47           -2.3652    -0.6224     1.7692 H       
  48 H48           -1.9342    -0.6275     4.7910 H       
  49 H49           -2.4869     0.7607     3.8236 H       
  50 H50           -4.4027    -0.4088     4.8774 H       
  51 H51           -4.4758    -0.5330     3.1032 H       
  52 H52           -3.3718    -2.6610     4.9926 H       
  53 H53           -4.9485    -2.7216     4.1688 H       
  54 H54           -3.8027    -2.6560     1.9708 H       
  55 H55           -3.2501    -4.0442     2.9381 H       
  56 H56            0.1663    -4.6477    -0.0980 H       
  57 H57            1.1888    -4.2893     1.3141 H       
  58 H58           -0.2632    -6.9226     0.7904 H       
  59 H59            1.4811    -6.6388     0.5772 H       
  60 H60            1.0149    -7.7142     2.7623 H       
  61 H61            1.6844    -6.0800     2.9845 H       
  62 H62           -1.2762    -6.8178     3.0719 H       
  63 H63           -0.2537    -6.4593     4.4841 H       
  64 H64            0.1758    -4.1845     3.5956 H       
  65 H65           -1.5684    -4.4683     3.8088 H       
  66 H66            2.0910    -1.5102    -2.2288 H       
  67 H67            3.0796     0.5911    -1.3517 H       
  68 H68            1.9204     1.7725     0.5021 H       
  69 H69           -0.1632     0.8397     1.4171 H       
@<TRIPOS>BOND
   1    1    2 2
   2    1    7 1
   3    1    5 1
   4    2    3 1
   5    2    8 1
   6    3    4 2
   7    3    6 1
   8    4    5 1
   9    4   18 1
  10    6   17 1
  11    6   36 1
  12    6   37 1
  13    7   38 1
  14    7   39 1
  15    8    9 1
  16    8   10 2
  17    9   11 ar
  18    9   15 ar
  19   11   12 ar
  20   11   40 1
  21   12   13 ar
  22   12   41 1
  23   13   14 ar
  24   13   16 1
  25   14   15 ar
  26   14   42 1
  27   15   43 1
  28   17   19 1
  29   17   20 1
  30   18   31 ar
  31   18   35 ar
  32   19   21 1
  33   19   25 1
  34   19   44 1
  35   20   26 1
  36   20   30 1
  37   20   45 1
  38   21   22 1
  39   21   46 1
  40   21   47 1
  41   22   23 1
  42   22   48 1
  43   22   49 1
  44   23   24 1
  45   23   50 1
  46   23   51 1
  47   24   25 1
  48   24   52 1
  49   24   53 1
  50   25   54 1
  51   25   55 1
  52   26   27 1
  53   26   56 1
  54   26   57 1
  55   27   28 1
  56   27   58 1
  57   27   59 1
  58   28   29 1
  59   28   60 1
  60   28   61 1
  61   29   30 1
  62   29   62 1
  63   29   63 1
  64   30   64 1
  65   30   65 1
  66   31   32 ar
  67   31   66 1
  68   32   33 ar
  69   32   67 1
  70   33   34 ar
  71   33   68 1
  72   34   35 ar
  73   34   69 1

#	End of record

