#	Name: ASD08150530
#	Creating user name:	WinNT
#	Creation time:	15. 06. 2019 21:16

#	Modifying user name:	WinNT
#	Modification time:	15. 06. 2019 21:16

#	Program:	/corina/corina34_cracker 3.40 0067  02.08.2006

@<TRIPOS>MOLECULE
ASD08150530
  28   29    0    0    0
SMALL
NO_CHARGES


@<TRIPOS>ATOM
   1 C1             0.1614     1.6101     0.0291 C.2     
   2 C2            -0.1312     0.1654     0.0386 C.ar    
   3 C3             0.9110    -0.7668    -0.0823 C.ar    
   4 C4             0.6236    -2.1255    -0.0722 C.ar    
   5 C5            -0.6815    -2.5557     0.0558 C.ar    
   6 C6            -1.7149    -1.6378     0.1751 C.ar    
   7 C7            -1.4473    -0.2842     0.1738 C.ar    
   8 O8             1.3142     1.9969     0.0096 O.2     
   9 N9            -0.8487     2.5024     0.0366 N.am    
  10 F10           -2.9884    -2.0713     0.2993 F       
  11 C11           -0.5734     3.8698     0.1446 C.ar    
  12 C12           -1.4815     4.8037    -0.3409 C.ar    
  13 C13           -1.2063     6.1535    -0.2320 C.ar    
  14 C14           -0.0288     6.5749     0.3587 C.ar    
  15 C15            0.8760     5.6482     0.8423 C.ar    
  16 C16            0.6046     4.2973     0.7419 C.ar    
  17 Cl17          -2.9590     4.2751    -1.0834 Cl      
  18 N18            2.2250    -0.3321    -0.2120 N.pl3   
  19 H19            1.4224    -2.8463    -0.1649 H       
  20 H20           -0.8997    -3.6135     0.0627 H       
  21 H21           -2.2544     0.4268     0.2718 H       
  22 H22           -1.7666     2.1964    -0.0329 H       
  23 H23           -1.9110     6.8799    -0.6087 H       
  24 H24            0.1844     7.6304     0.4420 H       
  25 H25            1.7946     5.9809     1.3026 H       
  26 H26            1.3101     3.5744     1.1240 H       
  27 H27            2.4164     0.6151    -0.2960 H       
  28 H28            2.9505    -0.9759    -0.2186 H       
@<TRIPOS>BOND
   1    1    2 1
   2    1    8 2
   3    1    9 am
   4    2    3 ar
   5    2    7 ar
   6    3    4 ar
   7    3   18 1
   8    4    5 ar
   9    4   19 1
  10    5    6 ar
  11    5   20 1
  12    6    7 ar
  13    6   10 1
  14    7   21 1
  15    9   11 1
  16    9   22 1
  17   11   12 ar
  18   11   16 ar
  19   12   13 ar
  20   12   17 1
  21   13   14 ar
  22   13   23 1
  23   14   15 ar
  24   14   24 1
  25   15   16 ar
  26   15   25 1
  27   16   26 1
  28   18   27 1
  29   18   28 1

#	End of record

