#	Name: ASD03080017
#	Creating user name:	WinNT
#	Creation time:	15. 06. 2019 20:26

#	Modifying user name:	WinNT
#	Modification time:	15. 06. 2019 20:26

#	Program:	/corina/corina34_cracker 3.40 0067  02.08.2006

@<TRIPOS>MOLECULE
ASD03080017
  26   28    0    0    0
SMALL
NO_CHARGES


@<TRIPOS>ATOM
   1 O1            -0.0144     1.2085     0.0087 O.3     
   2 N2             0.0021    -0.0041     0.0020 N.2     
   3 C3             1.2349    -0.4422    -0.0121 C.2     
   4 N4             2.0458     0.6363    -0.0141 N.2     
   5 C5             1.2412     1.6828    -0.0008 C.2     
   6 C6             3.0155    -2.1956    -0.0380 C.ar    
   7 C7             1.6626    -1.8636    -0.0238 C.ar    
   8 C8             0.7148    -2.8901    -0.0203 C.ar    
   9 C9             1.1648    -4.1995    -0.0312 C.ar    
  10 C10            2.5251    -4.4470    -0.0450 C.ar    
  11 N11            3.3964    -3.4565    -0.0480 N.ar    
  12 C12            1.6453     3.1039     0.0030 C.ar    
  13 C13            0.6746     4.1100     0.0182 C.ar    
  14 C14            1.0599     5.4375     0.0221 C.ar    
  15 C15            2.4016     5.7711     0.0106 C.ar    
  16 C16            3.3688     4.7788    -0.0045 C.ar    
  17 C17            2.9979     3.4480    -0.0027 C.ar    
  18 F18            4.6777     5.1135    -0.0161 F       
  19 F19           -0.6369     3.7856     0.0286 F       
  20 H20            3.7587    -1.4120    -0.0454 H       
  21 H21           -0.3420    -2.6679    -0.0091 H       
  22 H22            0.4610    -5.0187    -0.0285 H       
  23 H23            2.8798    -5.4670    -0.0532 H       
  24 H24            0.3112     6.2159     0.0339 H       
  25 H25            2.6973     6.8099     0.0130 H       
  26 H26            3.7528     2.6757    -0.0100 H       
@<TRIPOS>BOND
   1    1    2 1
   2    1    5 1
   3    2    3 2
   4    3    4 1
   5    3    7 1
   6    4    5 2
   7    5   12 1
   8    6    7 ar
   9    6   11 ar
  10    6   20 1
  11    7    8 ar
  12    8    9 ar
  13    8   21 1
  14    9   10 ar
  15    9   22 1
  16   10   11 ar
  17   10   23 1
  18   12   13 ar
  19   12   17 ar
  20   13   14 ar
  21   13   19 1
  22   14   15 ar
  23   14   24 1
  24   15   16 ar
  25   15   25 1
  26   16   17 ar
  27   16   18 1
  28   17   26 1

#	End of record

