#	Name: ASD01148149
#	Creating user name:	WinNT
#	Creation time:	15. 06. 2019 19:02

#	Modifying user name:	WinNT
#	Modification time:	15. 06. 2019 19:02

#	Program:	/corina/corina34_cracker 3.40 0067  02.08.2006

@<TRIPOS>MOLECULE
ASD01148149
  31   31    0    0    0
SMALL
NO_CHARGES


@<TRIPOS>ATOM
   1 C1            -0.0184     1.5028     0.0103 C.2     
   2 C2             0.0021    -0.0041     0.0020 C.3     
   3 C3             1.4295    -0.4870    -0.0142 C.2     
   4 O4             1.0197     2.1211     0.0037 O.2     
   5 O5            -1.1898     2.1580     0.0194 O.3     
   6 C6             3.0442    -2.3914    -0.0399 C.ar    
   7 C7             1.7172    -1.9262    -0.0247 C.ar    
   8 C8             0.6738    -2.8636    -0.0193 C.ar    
   9 C9             0.9992    -4.2074    -0.0292 C.ar    
  10 C10            2.3302    -4.5862    -0.0439 C.ar    
  11 N11            3.2971    -3.6890    -0.0488 N.ar    
  12 O12            4.0680    -1.5059    -0.0510 O.3     
  13 C13            5.3915    -2.0445    -0.0661 C.3     
  14 N14           -0.0680    -5.2331    -0.0235 N.pl3   
  15 O15           -1.2379    -4.8946    -0.0101 O.2     
  16 O16            0.2238    -6.4156    -0.0322 O.2     
  17 O17            2.3407     0.3137    -0.0186 O.2     
  18 C18           -1.1335     3.6089     0.0270 C.3     
  19 C19           -2.5551     4.1744     0.0369 C.3     
  20 H20           -0.4983    -0.3791     0.8948 H       
  21 H21           -0.5153    -0.3696    -0.8850 H       
  22 H22           -0.3576    -2.5438    -0.0074 H       
  23 H23            2.5820    -5.6364    -0.0513 H       
  24 H24            6.1153    -1.2296    -0.0739 H       
  25 H25            5.5444    -2.6578     0.8219 H       
  26 H26            5.5243    -2.6569    -0.9580 H       
  27 H27           -0.6017     3.9472     0.9164 H       
  28 H28           -0.6102     3.9569    -0.8636 H       
  29 H29           -2.5128     5.2636     0.0426 H       
  30 H30           -3.0869     3.8361    -0.8525 H       
  31 H31           -3.0784     3.8265     0.9275 H       
@<TRIPOS>BOND
   1    1    2 1
   2    1    4 2
   3    1    5 1
   4    2    3 1
   5    2   20 1
   6    2   21 1
   7    3    7 1
   8    3   17 2
   9    5   18 1
  10    6    7 ar
  11    6   11 ar
  12    6   12 1
  13    7    8 ar
  14    8    9 ar
  15    8   22 1
  16    9   10 ar
  17    9   14 1
  18   10   11 ar
  19   10   23 1
  20   12   13 1
  21   13   24 1
  22   13   25 1
  23   13   26 1
  24   14   15 2
  25   14   16 2
  26   18   19 1
  27   18   27 1
  28   18   28 1
  29   19   29 1
  30   19   30 1
  31   19   31 1

#	End of record

