#	Name: ASD01870514
#	Creating user name:	WinNT
#	Creation time:	15. 06. 2019 19:39

#	Modifying user name:	WinNT
#	Modification time:	15. 06. 2019 19:39

#	Program:	/corina/corina34_cracker 3.40 0067  02.08.2006

@<TRIPOS>MOLECULE
ASD01870514
  40   43    0    0    0
SMALL
NO_CHARGES


@<TRIPOS>ATOM
   1 C1            -0.0558     1.4169     0.0665 C.ar    
   2 C2            -0.0446     0.0275     0.0766 C.ar    
   3 C3             1.1556    -0.6637     0.0771 C.ar    
   4 C4             2.3595     0.0208     0.0681 C.ar    
   5 C5             2.3628     1.4073     0.0580 C.ar    
   6 C6             1.1414     2.1123     0.0570 C.ar    
   7 C7             3.4230     2.4355     0.0465 C.2     
   8 N8             2.8436     3.6495     0.0393 N.am    
   9 C9             1.5024     3.5459     0.0456 C.2     
  10 O10            0.7194     4.4743     0.0415 O.2     
  11 O11            4.6185     2.2208     0.0439 O.2     
  12 C12            3.5458     4.8640     0.0279 C.ar    
  13 C13            2.8520     6.0666     0.0213 C.ar    
  14 C14            3.5418     7.2627     0.0101 C.ar    
  15 C15            4.9301     7.2637     0.0055 C.ar    
  16 C16            5.6258     6.0595     0.0126 C.ar    
  17 C17            4.9340     4.8628     0.0292 C.ar    
  18 N18            5.6299     8.4772    -0.0068 N.am    
  19 C19            5.1264     9.5388    -0.6670 C.2     
  20 C20            5.7938    10.8414    -0.5781 C.2     
  21 O21            4.1177     9.4163    -1.3371 O.2     
  22 C22            5.3920    11.9926    -1.1931 C.2     
  23 C23            6.3167    12.9858    -0.8343 C.2     
  24 C24            7.2308    12.4048    -0.0263 C.2     
  25 O25            6.9090    11.1141     0.1304 O.3     
  26 C26            4.1891    12.1634    -2.0847 C.3     
  27 F27            6.9768     6.0592     0.0078 F       
  28 F28           -1.2114    -0.6534     0.0863 F       
  29 H29           -0.9940     1.9518     0.0616 H       
  30 H30            1.1527    -1.7436     0.0850 H       
  31 H31            3.2924    -0.5234     0.0693 H       
  32 H32            1.7720     6.0666     0.0245 H       
  33 H33            3.0012     8.1976     0.0045 H       
  34 H34            5.4734     3.9272     0.0389 H       
  35 H35            6.4769     8.5534     0.4599 H       
  36 H36            6.3008    14.0198    -1.1458 H       
  37 H37            8.0788    12.9006     0.4227 H       
  38 H38            3.3257    12.4421    -1.4806 H       
  39 H39            4.3879    12.9459    -2.8171 H       
  40 H40            3.9837    11.2259    -2.6014 H       
@<TRIPOS>BOND
   1    1    2 ar
   2    1    6 ar
   3    1   29 1
   4    2    3 ar
   5    2   28 1
   6    3    4 ar
   7    3   30 1
   8    4    5 ar
   9    4   31 1
  10    5    7 1
  11    5    6 ar
  12    6    9 1
  13    7    8 am
  14    7   11 2
  15    8    9 am
  16    8   12 1
  17    9   10 2
  18   12   13 ar
  19   12   17 ar
  20   13   14 ar
  21   13   32 1
  22   14   15 ar
  23   14   33 1
  24   15   16 ar
  25   15   18 1
  26   16   17 ar
  27   16   27 1
  28   17   34 1
  29   18   19 am
  30   18   35 1
  31   19   20 1
  32   19   21 2
  33   20   22 2
  34   20   25 1
  35   22   23 1
  36   22   26 1
  37   23   24 2
  38   23   36 1
  39   24   25 1
  40   24   37 1
  41   26   38 1
  42   26   39 1
  43   26   40 1

#	End of record

