#	Name: ASD01800016
#	Creating user name:	WinNT
#	Creation time:	15. 06. 2019 19:23

#	Modifying user name:	WinNT
#	Modification time:	15. 06. 2019 19:23

#	Program:	/corina/corina34_cracker 3.40 0067  02.08.2006

@<TRIPOS>MOLECULE
ASD01800016
  51   54    0    0    0
SMALL
NO_CHARGES


@<TRIPOS>ATOM
   1 C1            -0.0210     1.3795     0.0295 C.ar    
   2 C2             0.0146     0.0053     0.2467 C.ar    
   3 C3             1.2321    -0.6710     0.2243 C.ar    
   4 C4             2.4087     0.0243    -0.0142 C.ar    
   5 C5             2.3758     1.3942    -0.2309 C.ar    
   6 C6             1.1607     2.0748    -0.2096 C.ar    
   7 C7             1.1261     3.5402    -0.4420 C.ar    
   8 C8            -1.2437    -0.7390     0.5023 C.ar    
   9 C9             2.3079     4.2381    -0.6819 C.ar    
  10 C10            2.2699     5.6009    -0.8974 C.ar    
  11 C11            1.0616     6.2737    -0.8755 C.ar    
  12 C12           -0.1146     5.5858    -0.6373 C.ar    
  13 C13           -0.0889     4.2220    -0.4267 C.ar    
  14 C14           -1.2104    -2.1148     0.7200 C.ar    
  15 C15           -2.3836    -2.8020     0.9572 C.ar    
  16 C16           -3.5909    -2.1273     0.9791 C.ar    
  17 C17           -3.6298    -0.7616     0.7632 C.ar    
  18 C18           -2.4620    -0.0635     0.5312 C.ar    
  19 N19            3.6311    -0.6574    -0.0357 N.am    
  20 C20            3.6970    -1.9072    -0.5359 C.2     
  21 N21            4.8884    -2.5281    -0.6433 N.am    
  22 O22            2.6817    -2.4745    -0.8903 O.2     
  23 C23            4.9600    -3.8866    -1.1870 C.3     
  24 C24            6.3547    -4.1422    -1.7849 C.3     
  25 C25            6.9626    -5.3209    -0.9970 C.3     
  26 C26            5.7331    -6.0726    -0.4293 C.3     
  27 C27            4.7691    -4.9189    -0.0567 C.3     
  28 H28           -0.9645     1.9048     0.0420 H       
  29 H29            1.2602    -1.7373     0.3931 H       
  30 H30            3.2931     1.9333    -0.4160 H       
  31 H31            3.2519     3.7138    -0.6989 H       
  32 H32            3.1854     6.1429    -1.0832 H       
  33 H33            1.0364     7.3401    -1.0446 H       
  34 H34           -1.0552     6.1162    -0.6205 H       
  35 H35           -1.0078     3.6859    -0.2408 H       
  36 H36           -0.2683    -2.6425     0.7027 H       
  37 H37           -2.3590    -3.8685     1.1257 H       
  38 H38           -4.5066    -2.6689     1.1652 H       
  39 H39           -4.5753    -0.2399     0.7807 H       
  40 H40           -2.4935     1.0028     0.3627 H       
  41 H41            4.4307    -0.2304     0.3094 H       
  42 H42            5.6984    -2.0755    -0.3606 H       
  43 H43            4.1953    -4.0232    -1.9516 H       
  44 H44            6.2667    -4.4037    -2.8394 H       
  45 H45            6.9782    -3.2555    -1.6705 H       
  46 H46            7.5332    -5.9699    -1.6613 H       
  47 H47            7.5927    -4.9537    -0.1869 H       
  48 H48            5.2895    -6.7166    -1.1886 H       
  49 H49            6.0067    -6.6482     0.4551 H       
  50 H50            5.0450    -4.4868     0.9052 H       
  51 H51            3.7390    -5.2745    -0.0349 H       
@<TRIPOS>BOND
   1    1    2 ar
   2    1    6 ar
   3    1   28 1
   4    2    3 ar
   5    2    8 1
   6    3    4 ar
   7    3   29 1
   8    4    5 ar
   9    4   19 1
  10    5    6 ar
  11    5   30 1
  12    6    7 1
  13    7    9 ar
  14    7   13 ar
  15    8   14 ar
  16    8   18 ar
  17    9   10 ar
  18    9   31 1
  19   10   11 ar
  20   10   32 1
  21   11   12 ar
  22   11   33 1
  23   12   13 ar
  24   12   34 1
  25   13   35 1
  26   14   15 ar
  27   14   36 1
  28   15   16 ar
  29   15   37 1
  30   16   17 ar
  31   16   38 1
  32   17   18 ar
  33   17   39 1
  34   18   40 1
  35   19   20 am
  36   19   41 1
  37   20   21 am
  38   20   22 2
  39   21   23 1
  40   21   42 1
  41   23   24 1
  42   23   27 1
  43   23   43 1
  44   24   25 1
  45   24   44 1
  46   24   45 1
  47   25   26 1
  48   25   46 1
  49   25   47 1
  50   26   27 1
  51   26   48 1
  52   26   49 1
  53   27   50 1
  54   27   51 1

#	End of record

