#	Name: ASD04230001
#	Creating user name:	WinNT
#	Creation time:	15. 06. 2019 20:48

#	Modifying user name:	WinNT
#	Modification time:	15. 06. 2019 20:48

#	Program:	/corina/corina34_cracker 3.40 0067  02.08.2006

@<TRIPOS>MOLECULE
ASD04230001
  68   71    0    0    0
SMALL
NO_CHARGES


@<TRIPOS>ATOM
   1 C1            -0.0158     1.4035     0.0247 C.ar    
   2 C2             0.0040    -0.0025    -0.0122 C.ar    
   3 C3             1.1823    -0.6854    -0.0409 C.ar    
   4 C4             2.4162    -0.0240    -0.0346 C.ar    
   5 C5             2.4664     1.3728     0.0014 C.ar    
   6 C6             1.2053     2.1187     0.0321 C.ar    
   7 O7             3.5664    -0.7405    -0.0631 O.3     
   8 O8             1.1594    -2.0444    -0.0762 O.3     
   9 C9            -1.2328     2.1090     0.0486 C.ar    
  10 C10           -1.2330     3.4676     0.0837 C.ar    
  11 C11           -0.0293     4.1879     0.0963 C.ar    
  12 C12            1.1908     3.5189     0.0678 C.ar    
  13 C13           -1.2965    -0.7639    -0.0195 C.3     
  14 C14           -1.4342    -1.5255    -1.3393 C.3     
  15 C15           -1.3136    -1.7554     1.1456 C.3     
  16 C16            3.7487     2.0738     0.0088 C.2     
  17 O17            4.7839     1.4447     0.0872 O.2     
  18 O18            2.3560     4.2166     0.0804 O.3     
  19 C19           -0.0570     5.6681     0.1336 C.ar    
  20 C20           -2.5440     4.2103     0.1089 C.3     
  21 C21           -0.0644     6.3295     1.3581 C.ar    
  22 C22           -0.0901     7.7297     1.3819 C.ar    
  23 C23           -0.1082     8.4526     0.1654 C.ar    
  24 C24           -0.0998     7.7549    -1.0563 C.ar    
  25 C25           -0.0698     6.3962    -1.0654 C.ar    
  26 C26           -0.0610     5.6617    -2.3813 C.3     
  27 O27           -0.0472     5.6242     2.5187 O.3     
  28 C28           -0.0993     8.4680     2.6478 C.ar    
  29 C29           -0.1257     9.8654     2.6066 C.ar    
  30 C30           -0.1432    10.5345     1.3770 C.ar    
  31 C31           -0.1349     9.8587     0.1942 C.ar    
  32 C32           -0.1541    10.6282    -1.1014 C.3     
  33 C33           -1.3625    11.5665    -1.1193 C.3     
  34 C34            1.1310    11.4490    -1.2261 C.3     
  35 O35           -0.1692    11.8938     1.3629 O.3     
  36 O36           -0.1347    10.5748     3.7615 O.3     
  37 C37           -0.0818     7.7590     3.9256 C.2     
  38 O38            0.0136     8.3811     4.9636 O.2     
  39 H39            3.8925    -0.9256    -0.9544 H       
  40 H40            1.1446    -2.4144    -0.9695 H       
  41 H41           -2.1686     1.5699     0.0386 H       
  42 H42           -2.1269    -0.0657     0.0854 H       
  43 H43           -0.6038    -2.2237    -1.4442 H       
  44 H44           -2.3748    -2.0762    -1.3446 H       
  45 H45           -1.4220    -0.8191    -2.1694 H       
  46 H46           -2.2542    -2.3061     1.1403 H       
  47 H47           -0.4831    -2.4536     1.0407 H       
  48 H48           -1.2155    -1.2128     2.0859 H       
  49 H49            3.7753     3.1516    -0.0555 H       
  50 H50            2.6996     4.3923     0.9671 H       
  51 H51           -2.8554     4.3628     1.1423 H       
  52 H52           -2.4236     5.1767    -0.3807 H       
  53 H53           -3.3014     3.6286    -0.4166 H       
  54 H54           -0.1135     8.3000    -1.9885 H       
  55 H55            0.9685     5.5073    -2.7043 H       
  56 H56           -0.5530     4.6963    -2.2618 H       
  57 H57           -0.5923     6.2501    -3.1294 H       
  58 H58            0.8410     5.4359     2.8515 H       
  59 H59           -0.2227     9.9314    -1.9368 H       
  60 H60           -1.2939    12.2633    -0.2839 H       
  61 H61           -1.3764    12.1231    -2.0564 H       
  62 H62           -2.2780    10.9817    -1.0305 H       
  63 H63            1.9918    10.7805    -1.2133 H       
  64 H64            1.1171    12.0056    -2.1632 H       
  65 H65            1.1996    12.1458    -0.3907 H       
  66 H66            0.7065    12.3038     1.3554 H       
  67 H67            0.7459    10.7973     4.0933 H       
  68 H68           -0.1537     6.6816     3.9463 H       
@<TRIPOS>BOND
   1    1    2 ar
   2    1    6 ar
   3    1    9 ar
   4    2    3 ar
   5    2   13 1
   6    3    4 ar
   7    3    8 1
   8    4    5 ar
   9    4    7 1
  10    5    6 ar
  11    5   16 1
  12    6   12 ar
  13    7   39 1
  14    8   40 1
  15    9   10 ar
  16    9   41 1
  17   10   11 ar
  18   10   20 1
  19   11   12 ar
  20   11   19 1
  21   12   18 1
  22   13   14 1
  23   13   15 1
  24   13   42 1
  25   14   43 1
  26   14   44 1
  27   14   45 1
  28   15   46 1
  29   15   47 1
  30   15   48 1
  31   16   17 2
  32   16   49 1
  33   18   50 1
  34   19   21 ar
  35   19   25 ar
  36   20   51 1
  37   20   52 1
  38   20   53 1
  39   21   22 ar
  40   21   27 1
  41   22   23 ar
  42   22   28 ar
  43   23   24 ar
  44   23   31 ar
  45   24   25 ar
  46   24   54 1
  47   25   26 1
  48   26   55 1
  49   26   56 1
  50   26   57 1
  51   27   58 1
  52   28   29 ar
  53   28   37 1
  54   29   30 ar
  55   29   36 1
  56   30   31 ar
  57   30   35 1
  58   31   32 1
  59   32   33 1
  60   32   34 1
  61   32   59 1
  62   33   60 1
  63   33   61 1
  64   33   62 1
  65   34   63 1
  66   34   64 1
  67   34   65 1
  68   35   66 1
  69   36   67 1
  70   37   38 2
  71   37   68 1

#	End of record

