#	Name: ASD01915168
#	Creating user name:	WinNT
#	Creation time:	15. 06. 2019 20:05

#	Modifying user name:	WinNT
#	Modification time:	15. 06. 2019 20:05

#	Program:	/corina/corina34_cracker 3.40 0067  02.08.2006

@<TRIPOS>MOLECULE
ASD01915168
  41   44    0    0    0
SMALL
NO_CHARGES


@<TRIPOS>ATOM
   1 C1            -0.0144     1.2114     0.0087 C.2     
   2 O2             0.1098     0.0024     0.0306 O.2     
   3 N3             1.0771     2.0001    -0.0469 N.am    
   4 C4             2.5329     1.7985     0.0057 C.3     
   5 C5             2.6859     3.0806    -0.8244 C.3     
   6 C6             1.3366     3.4402    -0.1933 C.3     
   7 O7             3.9869     4.5254     0.8099 O.3     
   8 N8             5.0098     5.1767     0.8324 N.2     
   9 C9             5.6111     5.1091    -0.3268 C.2     
  10 N10            4.8519     4.3253    -1.1253 N.2     
  11 C11            3.8282     3.9637    -0.3926 C.2     
  12 C12            6.8878     5.7695    -0.6970 C.ar    
  13 C13            7.5654     6.5532     0.2348 C.ar    
  14 C14            9.2692     7.0008    -1.3872 C.ar    
  15 C15            7.4158     5.6033    -1.9753 C.ar    
  16 C16            8.7523     7.1646    -0.1145 C.ar    
  17 C17            8.6037     6.2194    -2.3141 C.ar    
  18 C18            9.4864     8.0125     0.8921 C.3     
  19 C19           -1.3625     1.8164     0.0368 C.ar    
  20 C20           -1.5074     3.2002     0.1518 C.ar    
  21 C21           -2.7678     3.7589     0.1770 C.ar    
  22 C22           -3.8888     2.9501     0.0890 C.ar    
  23 C23           -3.7514     1.5765    -0.0248 C.ar    
  24 C24           -2.4960     1.0068    -0.0573 C.ar    
  25 Cl25          -5.4724     3.6607     0.1220 Cl      
  26 H26            2.9465     1.8803     1.0109 H       
  27 H27            2.8661     0.9013    -0.5161 H       
  28 H28            2.6436     2.9230    -1.9021 H       
  29 H29            0.6545     3.9362    -0.8838 H       
  30 H30            1.4282     3.9637     0.7584 H       
  31 H31            7.1624     6.6823     1.2285 H       
  32 H32           10.1982     7.4813    -1.6565 H       
  33 H33            6.8968     4.9933    -2.6999 H       
  34 H34            9.0115     6.0952    -3.3064 H       
  35 H35           10.1832     7.3894     1.4528 H       
  36 H36           10.0370     8.7972     0.3735 H       
  37 H37            8.7698     8.4641     1.5782 H       
  38 H38           -0.6341     3.8318     0.2212 H       
  39 H39           -2.8812     4.8293     0.2659 H       
  40 H40           -4.6291     0.9509    -0.0923 H       
  41 H41           -2.3900    -0.0639    -0.1509 H       
@<TRIPOS>BOND
   1    1    2 2
   2    1    3 am
   3    1   19 1
   4    3    4 1
   5    3    6 1
   6    4    5 1
   7    4   26 1
   8    4   27 1
   9    5    6 1
  10    5   11 1
  11    5   28 1
  12    6   29 1
  13    6   30 1
  14    7    8 1
  15    7   11 1
  16    8    9 2
  17    9   10 1
  18    9   12 1
  19   10   11 2
  20   12   13 ar
  21   12   15 ar
  22   13   16 ar
  23   13   31 1
  24   14   16 ar
  25   14   17 ar
  26   14   32 1
  27   15   17 ar
  28   15   33 1
  29   16   18 1
  30   17   34 1
  31   18   35 1
  32   18   36 1
  33   18   37 1
  34   19   20 ar
  35   19   24 ar
  36   20   21 ar
  37   20   38 1
  38   21   22 ar
  39   21   39 1
  40   22   23 ar
  41   22   25 1
  42   23   24 ar
  43   23   40 1
  44   24   41 1

#	End of record

