#	Name: ASD08150898
#	Creating user name:	WinNT
#	Creation time:	15. 06. 2019 21:16

#	Modifying user name:	WinNT
#	Modification time:	15. 06. 2019 21:16

#	Program:	/corina/corina34_cracker 3.40 0067  02.08.2006

@<TRIPOS>MOLECULE
ASD08150898
  46   50    0    0    0
SMALL
NO_CHARGES


@<TRIPOS>ATOM
   1 N1            -0.2024     1.3847     0.2687 N.2     
   2 C2            -0.5817     0.2694     0.8217 C.2     
   3 N3            -0.2354     0.2620     2.1402 N.pl3   
   4 C4             0.3960     1.4507     2.4063 C.ar    
   5 N5             0.9427     2.0020     3.4847 N.ar    
   6 C6             1.4906     3.1975     3.4226 C.ar    
   7 N7             1.5271     3.9033     2.3073 N.ar    
   8 C8             1.0057     3.4341     1.1783 C.ar    
   9 C9             0.4098     2.1617     1.1943 C.ar    
  10 N10            1.0484     4.1814     0.0144 N.pl3   
  11 C11            1.6735     5.5064     0.0171 C.3     
  12 C12            2.1044     5.8699    -1.4052 C.3     
  13 N13            0.6197     9.7943     2.1273 N.ar    
  14 C14           -0.2388    10.6842     2.5647 C.ar    
  15 C15           -1.6137    10.4850     2.4660 C.ar    
  16 C16           -2.0973     9.3389     1.9013 C.ar    
  17 C17           -1.1718     8.3872     1.4331 C.ar    
  18 C18           -1.5970     7.1858     0.8408 C.ar    
  19 C19           -0.6773     6.2813     0.3973 C.ar    
  20 C20            0.6850     6.5272     0.5189 C.ar    
  21 C21            1.1446     7.6980     1.0957 C.ar    
  22 C22            0.2124     8.6542     1.5657 C.ar    
  23 C23            2.5991     7.9484     1.2206 C.ar    
  24 C24            3.2867     7.5336     2.3637 C.ar    
  25 C25            4.6439     7.7704     2.4729 C.ar    
  26 C26            5.3198     8.4163     1.4534 C.ar    
  27 C27            4.6433     8.8289     0.3196 C.ar    
  28 C28            3.2890     8.5940     0.1955 C.ar    
  29 F29            2.6267     6.9032     3.3598 F       
  30 Cl30          -3.2925     6.8515     0.6762 Cl      
  31 H31           -1.0955    -0.5319     0.3115 H       
  32 H32           -0.4045    -0.4525     2.7740 H       
  33 H33            1.9262     3.6167     4.3175 H       
  34 H34            0.6644     3.8280    -0.8033 H       
  35 H35            2.5466     5.4948     0.6695 H       
  36 H36            2.8194     5.1315    -1.7682 H       
  37 H37            1.2313     5.8814    -2.0576 H       
  38 H38            2.5695     6.8557    -1.4032 H       
  39 H39            0.1299    11.5948     3.0133 H       
  40 H40           -2.2967    11.2355     2.8356 H       
  41 H41           -3.1603     9.1675     1.8169 H       
  42 H42           -1.0130     5.3605    -0.0563 H       
  43 H43            5.1776     7.4509     3.3558 H       
  44 H44            6.3804     8.5995     1.5432 H       
  45 H45            5.1773     9.3327    -0.4726 H       
  46 H46            2.7638     8.9131    -0.6926 H       
@<TRIPOS>BOND
   1    1    2 2
   2    1    9 1
   3    2    3 1
   4    2   31 1
   5    3    4 1
   6    3   32 1
   7    4    5 ar
   8    4    9 ar
   9    5    6 ar
  10    6    7 ar
  11    6   33 1
  12    7    8 ar
  13    8    9 ar
  14    8   10 1
  15   10   11 1
  16   10   34 1
  17   11   12 1
  18   11   20 1
  19   11   35 1
  20   12   36 1
  21   12   37 1
  22   12   38 1
  23   13   14 ar
  24   13   22 ar
  25   14   15 ar
  26   14   39 1
  27   15   16 ar
  28   15   40 1
  29   16   17 ar
  30   16   41 1
  31   17   18 ar
  32   17   22 ar
  33   18   19 ar
  34   18   30 1
  35   19   20 ar
  36   19   42 1
  37   20   21 ar
  38   21   22 ar
  39   21   23 1
  40   23   24 ar
  41   23   28 ar
  42   24   25 ar
  43   24   29 1
  44   25   26 ar
  45   25   43 1
  46   26   27 ar
  47   26   44 1
  48   27   28 ar
  49   27   45 1
  50   28   46 1

#	End of record

