#	Name: ASD06190007
#	Creating user name:	WinNT
#	Creation time:	15. 06. 2019 21:05

#	Modifying user name:	WinNT
#	Modification time:	15. 06. 2019 21:05

#	Program:	/corina/corina34_cracker 3.40 0067  02.08.2006

@<TRIPOS>MOLECULE
ASD06190007
  46   48    0    0    0
SMALL
NO_CHARGES


@<TRIPOS>ATOM
   1 N1             0.0354     1.3734     0.1594 N.2     
   2 C2            -0.0374     0.0611    -0.0160 C.2     
   3 C3             1.2187     1.9032     0.1546 C.2     
   4 S4             2.4225     0.6427    -0.0972 S.3     
   5 C5             1.1417    -0.5649    -0.1791 C.2     
   6 C6             1.3344    -2.0439    -0.3942 C.3     
   7 C7            -1.3298    -0.6664    -0.0307 C.ar    
   8 C8            -2.4198    -0.1416    -0.7228 C.ar    
   9 C9            -1.4570    -1.8801     0.6428 C.ar    
  10 C10           -2.6628    -2.5531     0.6251 C.ar    
  11 C11           -3.7435    -2.0239    -0.0600 C.ar    
  12 C12           -3.6204    -0.8226    -0.7339 C.ar    
  13 C13           -5.0570    -2.7625    -0.0760 C.3     
  14 Cl14          -2.8236    -4.0652     1.4626 Cl      
  15 N15            1.4942     3.2547     0.3221 N.am    
  16 C16            2.7693     3.6906     0.2984 C.2     
  17 N17            3.0365     5.0016     0.4608 N.am    
  18 S18            4.6032     5.5371     0.4317 S.o2    
  19 O19            3.6785     2.9011     0.1305 O.2     
  20 C20            5.2237     5.2466    -1.1916 C.ar    
  21 O21            4.5482     6.9477     0.5938 O.2     
  22 O22            5.3354     4.6830     1.2999 O.2     
  23 C23            5.0900     6.2174    -2.1666 C.ar    
  24 C24            5.8491     4.0501    -1.4887 C.ar    
  25 C25            6.3359     3.8222    -2.7623 C.ar    
  26 C26            6.1968     4.7906    -3.7389 C.ar    
  27 C27            5.5767     5.9894    -3.4402 C.ar    
  28 C28            6.7279     4.5423    -5.1272 C.3     
  29 H29            2.3874    -2.2488    -0.5876 H       
  30 H30            1.0167    -2.5852     0.4970 H       
  31 H31            0.7385    -2.3677    -1.2476 H       
  32 H32           -2.3253     0.7966    -1.2493 H       
  33 H33           -0.6143    -2.2935     1.1769 H       
  34 H34           -4.4665    -0.4144    -1.2666 H       
  35 H35           -5.6659    -2.4393     0.7684 H       
  36 H36           -5.5830    -2.5483    -1.0063 H       
  37 H37           -4.8721    -3.8342    -0.0015 H       
  38 H38            0.7687     3.8846     0.4560 H       
  39 H39            2.3111     5.6314     0.5947 H       
  40 H40            4.6050     7.1537    -1.9334 H       
  41 H41            5.9578     3.2936    -0.7256 H       
  42 H42            6.8251     2.8878    -2.9942 H       
  43 H43            5.4681     6.7460    -4.2032 H       
  44 H44            5.9521     4.0770    -5.7352 H       
  45 H45            7.0234     5.4897    -5.5780 H       
  46 H46            7.5924     3.8807    -5.0726 H       
@<TRIPOS>BOND
   1    1    2 1
   2    1    3 2
   3    2    7 1
   4    2    5 2
   5    3    4 1
   6    3   15 1
   7    4    5 1
   8    5    6 1
   9    6   29 1
  10    6   30 1
  11    6   31 1
  12    7    8 ar
  13    7    9 ar
  14    8   12 ar
  15    8   32 1
  16    9   10 ar
  17    9   33 1
  18   10   11 ar
  19   10   14 1
  20   11   12 ar
  21   11   13 1
  22   12   34 1
  23   13   35 1
  24   13   36 1
  25   13   37 1
  26   15   16 am
  27   15   38 1
  28   16   17 am
  29   16   19 2
  30   17   18 am
  31   17   39 1
  32   18   20 1
  33   18   21 2
  34   18   22 2
  35   20   23 ar
  36   20   24 ar
  37   23   27 ar
  38   23   40 1
  39   24   25 ar
  40   24   41 1
  41   25   26 ar
  42   25   42 1
  43   26   27 ar
  44   26   28 1
  45   27   43 1
  46   28   44 1
  47   28   45 1
  48   28   46 1

#	End of record

