#	Name: ASD03320036
#	Creating user name:	WinNT
#	Creation time:	15. 06. 2019 20:36

#	Modifying user name:	WinNT
#	Modification time:	15. 06. 2019 20:36

#	Program:	/corina/corina34_cracker 3.40 0067  02.08.2006

@<TRIPOS>MOLECULE
ASD03320036
  66   70    0    0    0
SMALL
NO_CHARGES


@<TRIPOS>ATOM
   1 C1             0.0246     1.0597     0.5712 C.ar    
   2 C2            -0.1752     0.1945    -0.5043 C.ar    
   3 C3             1.2466     1.6702     0.7467 C.ar    
   4 C4             2.2859     1.4227    -0.1526 C.ar    
   5 C5             2.0849     0.5562    -1.2292 C.ar    
   6 C6             0.8622    -0.0534    -1.4030 C.ar    
   7 C7             3.5978     2.0778     0.0346 C.2     
   8 N8             3.6599     3.3968     0.3048 N.am    
   9 O9             4.6205     1.4270    -0.0551 O.2     
  10 C10           -1.4914    -0.4629    -0.6921 C.ar    
  11 C11           -1.7409    -1.2351    -1.8235 C.ar    
  12 C12           -2.9954    -1.8319    -1.9512 C.ar    
  13 N13           -3.9001    -1.6428    -0.9947 N.ar    
  14 C14           -3.6248    -0.9041     0.0617 C.ar    
  15 N15           -2.4525    -0.3279     0.2230 N.ar    
  16 N16           -3.2948    -2.6104    -3.0591 N.pl3   
  17 C17           -4.5919    -3.0987    -3.2402 C.ar    
  18 C18           -4.7929    -4.3338    -3.8432 C.ar    
  19 C19           -6.0758    -4.8135    -4.0202 C.ar    
  20 C20           -7.1597    -4.0655    -3.5983 C.ar    
  21 C21           -6.9632    -2.8353    -2.9980 C.ar    
  22 C22           -5.6827    -2.3525    -2.8124 C.ar    
  23 C23            4.9432     4.0333     0.6334 C.3     
  24 C24            5.1709     5.2037    -0.3313 C.3     
  25 N25            3.9568     6.0312    -0.3605 N.am    
  26 C26            2.6735     5.3947    -0.6892 C.3     
  27 C27            2.4466     4.2254     0.2700 C.3     
  28 C28            4.0189     7.3502    -0.0904 C.2     
  29 C29            5.3286     8.0006     0.1170 C.ar    
  30 O30            2.9969     8.0045    -0.0175 O.2     
  31 C31            5.5618     8.7594     1.2680 C.ar    
  32 C32            6.7915     9.3646     1.4544 C.ar    
  33 C33            7.7865     9.2199     0.5061 C.ar    
  34 C34            7.5608     8.4696    -0.6355 C.ar    
  35 C35            6.3422     7.8560    -0.8328 C.ar    
  36 F36            4.5892     8.9013     2.1949 F       
  37 C37           -6.2947    -6.1534    -4.6743 C.3     
  38 F38           -5.0587    -6.7152    -5.0116 F       
  39 F39           -6.9658    -7.0015    -3.7868 F       
  40 F40           -7.0629    -5.9873    -5.8317 F       
  41 C41           -8.1474    -2.0233    -2.5407 C.3     
  42 F42           -8.5290    -2.4358    -1.2595 F       
  43 F43           -7.8001    -0.6684    -2.5102 F       
  44 F44           -9.2127    -2.2118    -3.4278 F       
  45 H45           -0.7807     1.2545     1.2641 H       
  46 H46            1.4010     2.3404     1.5794 H       
  47 H47            2.8880     0.3644    -1.9254 H       
  48 H48            0.7065    -0.7235    -2.2355 H       
  49 H49           -0.9837    -1.3682    -2.5821 H       
  50 H50           -4.3825    -0.7712     0.8197 H       
  51 H51           -2.6041    -2.8160    -3.7083 H       
  52 H52           -3.9468    -4.9181    -4.1736 H       
  53 H53           -8.1619    -4.4428    -3.7382 H       
  54 H54           -5.5299    -1.3917    -2.3435 H       
  55 H55            4.9159     4.4038     1.6581 H       
  56 H56            5.7496     3.3080     0.5254 H       
  57 H57            6.0138     5.8029     0.0131 H       
  58 H58            5.3760     4.8196    -1.3305 H       
  59 H59            1.8671     6.1200    -0.5812 H       
  60 H60            2.7008     5.0241    -1.7139 H       
  61 H61            1.6036     3.6271    -0.0755 H       
  62 H62            2.2420     4.6071     1.2702 H       
  63 H63            6.9744     9.9516     2.3423 H       
  64 H64            8.7448     9.6948     0.6562 H       
  65 H65            8.3434     8.3614    -1.3718 H       
  66 H66            6.1689     7.2714    -1.7242 H       
@<TRIPOS>BOND
   1    1    2 ar
   2    1    3 ar
   3    1   45 1
   4    2   10 1
   5    2    6 ar
   6    3    4 ar
   7    3   46 1
   8    4    5 ar
   9    4    7 1
  10    5    6 ar
  11    5   47 1
  12    6   48 1
  13    7    8 am
  14    7    9 2
  15    8   23 1
  16    8   27 1
  17   10   11 ar
  18   10   15 ar
  19   11   12 ar
  20   11   49 1
  21   12   13 ar
  22   12   16 1
  23   13   14 ar
  24   14   15 ar
  25   14   50 1
  26   16   17 1
  27   16   51 1
  28   17   18 ar
  29   17   22 ar
  30   18   19 ar
  31   18   52 1
  32   19   20 ar
  33   19   37 1
  34   20   21 ar
  35   20   53 1
  36   21   22 ar
  37   21   41 1
  38   22   54 1
  39   23   24 1
  40   23   55 1
  41   23   56 1
  42   24   25 1
  43   24   57 1
  44   24   58 1
  45   25   26 1
  46   25   28 am
  47   26   27 1
  48   26   59 1
  49   26   60 1
  50   27   61 1
  51   27   62 1
  52   28   29 1
  53   28   30 2
  54   29   31 ar
  55   29   35 ar
  56   31   32 ar
  57   31   36 1
  58   32   33 ar
  59   32   63 1
  60   33   34 ar
  61   33   64 1
  62   34   35 ar
  63   34   65 1
  64   35   66 1
  65   37   38 1
  66   37   39 1
  67   37   40 1
  68   41   42 1
  69   41   43 1
  70   41   44 1

#	End of record

