#	Name: ASD01410958
#	Creating user name:	WinNT
#	Creation time:	15. 06. 2019 19:19

#	Modifying user name:	WinNT
#	Modification time:	15. 06. 2019 19:19

#	Program:	/corina/corina34_cracker 3.40 0067  02.08.2006

@<TRIPOS>MOLECULE
ASD01410958
  48   50    0    0    0
SMALL
NO_CHARGES


@<TRIPOS>ATOM
   1 C1            -0.0746     0.6845    -1.4426 C.2     
   2 C2             0.9407     0.8208    -2.2367 C.2     
   3 C3             2.3209     0.3180    -1.9297 C.3     
   4 C4             2.4550     0.0262    -0.4336 C.3     
   5 C5             1.2614    -0.8332     0.0020 C.3     
   6 C6            -0.0087     0.0140    -0.1017 C.3     
   7 Cl7           -1.6039     1.3235    -1.9591 Cl      
   8 P8             4.0071    -0.8779    -0.1223 P.3     
   9 N9             3.9583    -2.3275    -0.8877 N.pl3   
  10 O10            5.1493    -0.0879    -0.6340 O.2     
  11 C11            5.0390    -3.2001    -0.7952 C.2     
  12 C12            5.0600    -4.4292    -1.4132 C.2     
  13 S13            6.5830    -5.2369    -1.0679 S.3     
  14 C14            7.1309    -3.8762    -0.0995 C.2     
  15 C15            6.1780    -2.9035    -0.0832 C.2     
  16 C16            4.0179    -4.9605    -2.2037 C.2     
  17 O17            2.9999    -4.3169    -2.3815 O.2     
  18 O18            4.1503    -6.1825    -2.7626 O.3     
  19 C19            8.4354    -3.7970     0.5905 C.ar    
  20 C20            9.3414    -4.8552     0.5000 C.ar    
  21 C21           10.5573    -4.7755     1.1462 C.ar    
  22 C22           10.8799    -3.6488     1.8841 C.ar    
  23 C23            9.9851    -2.5961     1.9780 C.ar    
  24 C24            8.7689    -2.6613     1.3307 C.ar    
  25 O25            4.1832    -1.1125     1.4608 O.3     
  26 C26            4.3732    -0.0434     2.3897 C.3     
  27 Cl27          12.4121    -3.5561     2.6951 Cl      
  28 C28            4.3877    -0.6018     3.8141 C.3     
  29 H29            0.7835     1.3271    -3.1776 H       
  30 H30            2.5064    -0.5958    -2.4941 H       
  31 H31            3.0527     1.0729    -2.2176 H       
  32 H32            2.4548     0.9629     0.1239 H       
  33 H33            1.1771    -1.7014    -0.6516 H       
  34 H34            1.4014    -1.1590     1.0327 H       
  35 H35           -0.0022     0.7721     0.6815 H       
  36 H36           -0.8815    -0.6264     0.0254 H       
  37 H37            3.1765    -2.5768    -1.4048 H       
  38 H38            6.3051    -1.9731     0.4502 H       
  39 H39            3.3859    -6.4608    -3.2854 H       
  40 H40            9.0907    -5.7346    -0.0746 H       
  41 H41           11.2591    -5.5935     1.0769 H       
  42 H42           10.2421    -1.7202     2.5552 H       
  43 H43            8.0740    -1.8376     1.4004 H       
  44 H44            5.3220     0.4523     2.1841 H       
  45 H45            3.5590     0.6744     2.2891 H       
  46 H46            3.4390    -1.0975     4.0197 H       
  47 H47            5.2019    -1.3195     3.9146 H       
  48 H48            4.5327     0.2137     4.5226 H       
@<TRIPOS>BOND
   1    1    2 2
   2    1    6 1
   3    1    7 1
   4    2    3 1
   5    2   29 1
   6    3    4 1
   7    3   30 1
   8    3   31 1
   9    4    5 1
  10    4    8 1
  11    4   32 1
  12    5    6 1
  13    5   33 1
  14    5   34 1
  15    6   35 1
  16    6   36 1
  17    8    9 1
  18    8   10 2
  19    8   25 1
  20    9   11 1
  21    9   37 1
  22   11   12 2
  23   11   15 1
  24   12   13 1
  25   12   16 1
  26   13   14 1
  27   14   15 2
  28   14   19 1
  29   15   38 1
  30   16   17 2
  31   16   18 1
  32   18   39 1
  33   19   20 ar
  34   19   24 ar
  35   20   21 ar
  36   20   40 1
  37   21   22 ar
  38   21   41 1
  39   22   23 ar
  40   22   27 1
  41   23   24 ar
  42   23   42 1
  43   24   43 1
  44   25   26 1
  45   26   28 1
  46   26   44 1
  47   26   45 1
  48   28   46 1
  49   28   47 1
  50   28   48 1

#	End of record

