#	Name: ASD09740673
#	Creating user name:	WinNT
#	Creation time:	15. 06. 2019 21:23

#	Modifying user name:	WinNT
#	Modification time:	15. 06. 2019 21:23

#	Program:	/corina/corina34_cracker 3.40 0067  02.08.2006

@<TRIPOS>MOLECULE
ASD09740673
  50   52    0    0    0
SMALL
NO_CHARGES


@<TRIPOS>ATOM
   1 C1             0.0018    -0.0037    -0.0175 C.1     
   2 C2            -0.0174     1.4281     0.0016 C.ar    
   3 C3             1.1863     2.1483     0.0035 C.ar    
   4 C4             1.1648     3.5351     0.0215 C.ar    
   5 C5            -0.0368     4.2109     0.0379 C.ar    
   6 C6            -1.2424     3.5037     0.0366 C.ar    
   7 C7            -1.2327     2.1115     0.0123 C.ar    
   8 N8             0.0171    -1.1395    -0.0326 N.1     
   9 O9             2.3720     1.4883    -0.0117 O.3     
  10 C10            3.5547     2.2816    -0.1293 C.3     
  11 C11            3.9802     2.7712     1.2564 C.3     
  12 C12            4.6762     1.4381    -0.7388 C.3     
  13 S13           -4.1323     3.5044     0.0570 S.3     
  14 C14           -4.8578     5.1093     0.0843 C.2     
  15 N15           -3.9137     6.0076     0.0898 N.2     
  16 C16           -2.6772     5.5767     0.0748 C.2     
  17 C17           -2.5277     4.2338     0.0553 C.2     
  18 C18           -8.3551     8.4672     0.1551 C.3     
  19 C19           -7.0153     9.0951    -0.2842 C.3     
  20 C20           -5.9927     8.0171     0.1336 C.3     
  21 C21           -6.7633     6.7145     0.1196 C.ar    
  22 C22           -6.3082     5.3924     0.0981 C.ar    
  23 C23           -7.2250     4.3413     0.0891 C.ar    
  24 C24           -8.5777     4.6122     0.1015 C.ar    
  25 C25           -9.0224     5.9207     0.1228 C.ar    
  26 C26           -8.1182     6.9720     0.1319 C.ar    
  27 N27           -8.7033     8.9071     1.5128 N.3     
  28 H28            2.0928     4.0876     0.0230 H       
  29 H29           -0.0465     5.2908     0.0522 H       
  30 H30           -2.1631     1.5630     0.0067 H       
  31 H31            3.3547     3.1390    -0.7719 H       
  32 H32            4.1803     1.9138     1.8991 H       
  33 H33            4.8824     3.3764     1.1667 H       
  34 H34            3.1813     3.3722     1.6907 H       
  35 H35            4.3730     1.0893    -1.7259 H       
  36 H36            5.5783     2.0432    -0.8284 H       
  37 H37            4.8762     0.5807    -0.0961 H       
  38 H38           -1.8328     6.2500     0.0779 H       
  39 H39           -9.1462     8.7357    -0.5449 H       
  40 H40           -6.9955     9.2509    -1.3629 H       
  41 H41           -6.8325    10.0293     0.2468 H       
  42 H42           -5.1708     7.9781    -0.5813 H       
  43 H43           -5.6146     8.2222     1.1351 H       
  44 H44           -6.8771     3.3190     0.0721 H       
  45 H45           -9.2903     3.8007     0.0942 H       
  46 H46          -10.0827     6.1261     0.1320 H       
  47 H47           -9.5782     8.5024     1.8108 H       
  48 H48           -7.9639     8.6898     2.1641 H       
  49 Cl49          10.5783    15.0293     7.1641 Cl      
  50 H50           10.5783    16.3993     7.1641 H       
@<TRIPOS>BOND
   1    1    2 1
   2    1    8 3
   3    2    3 ar
   4    2    7 ar
   5    3    4 ar
   6    3    9 1
   7    4    5 ar
   8    4   28 1
   9    5    6 ar
  10    5   29 1
  11    6    7 ar
  12    6   17 1
  13    7   30 1
  14    9   10 1
  15   10   11 1
  16   10   12 1
  17   10   31 1
  18   11   32 1
  19   11   33 1
  20   11   34 1
  21   12   35 1
  22   12   36 1
  23   12   37 1
  24   13   14 1
  25   13   17 1
  26   14   15 2
  27   14   22 1
  28   15   16 1
  29   16   17 2
  30   16   38 1
  31   18   19 1
  32   18   26 1
  33   18   27 1
  34   18   39 1
  35   19   20 1
  36   19   40 1
  37   19   41 1
  38   20   21 1
  39   20   42 1
  40   20   43 1
  41   21   22 ar
  42   21   26 ar
  43   22   23 ar
  44   23   24 ar
  45   23   44 1
  46   24   25 ar
  47   24   45 1
  48   25   26 ar
  49   25   46 1
  50   27   47 1
  51   27   48 1
  52   49   50 1

#	End of record

