#	Name: ASD01885146
#	Creating user name:	WinNT
#	Creation time:	15. 06. 2019 19:49

#	Modifying user name:	WinNT
#	Modification time:	15. 06. 2019 19:49

#	Program:	/corina/corina34_cracker 3.40 0067  02.08.2006

@<TRIPOS>MOLECULE
ASD01885146
  56   61    0    0    0
SMALL
NO_CHARGES


@<TRIPOS>ATOM
   1 C1             1.5484     1.4579    -1.0838 C.2     
   2 C2             1.6033     0.0534    -1.1156 C.2     
   3 C3             1.2066    -0.6546    -0.0130 C.2     
   4 C4             0.7515     0.0354     1.1313 C.2     
   5 C5             0.7072     1.3821     1.1398 C.2     
   6 N6             1.1002     2.0975     0.0463 N.pl3   
   7 C7             1.1648     3.4313    -0.2311 C.2     
   8 N8             1.6228     3.5577    -1.4488 N.2     
   9 N9             1.8580     2.4009    -1.9607 N.2     
  10 C10            0.7781     4.5542     0.6966 C.3     
  11 Cl11           2.1662    -0.7725    -2.5350 Cl      
  12 N12            1.2514    -2.0467    -0.0204 N.pl3   
  13 C13            2.5313    -2.7601    -0.1465 C.3     
  14 C14            2.6246    -3.7952     0.9796 C.3     
  15 N15            1.4312    -4.6513     0.9536 N.3     
  16 C16            0.2121    -3.8741     1.2140 C.3     
  17 C17            0.0206    -2.8422     0.1037 C.3     
  18 C18            1.5599    -5.7631     1.9050 C.3     
  19 C19            1.9953     4.9755     1.5225 C.3     
  20 C20            1.8383     6.1856     2.4453 C.3     
  21 C21            1.9235     4.7776     3.0379 C.3     
  22 C22            0.2549    -6.5621     1.9446 C.3     
  23 C23            0.4757    -7.8591     2.6810 C.ar    
  24 C24            1.7477    -8.3624     2.8895 C.ar    
  25 O25            2.8561    -7.7121     2.4491 O.3     
  26 C26            2.6860    -6.7021     1.4537 C.3     
  27 C27           -0.6258    -8.5533     3.1533 C.ar    
  28 C28           -0.4608    -9.7460     3.8296 C.ar    
  29 C29            0.8091   -10.2526     4.0375 C.ar    
  30 C30            1.9101    -9.5653     3.5697 C.ar    
  31 H31            0.4372    -0.5185     2.0035 H       
  32 H32            0.3570     1.9002     2.0204 H       
  33 H33            0.4244     5.4033     0.1117 H       
  34 H34           -0.0149     4.2173     1.3642 H       
  35 H35            2.5760    -3.2643    -1.1119 H       
  36 H36            3.3554    -2.0517    -0.0618 H       
  37 H37            3.5149    -4.4079     0.8376 H       
  38 H38            2.6843    -3.2834     1.9401 H       
  39 H39           -0.6473    -4.5440     1.2420 H       
  40 H40            0.3054    -3.3612     2.1712 H       
  41 H41           -0.8161    -2.1890     0.3513 H       
  42 H42           -0.1757    -3.3517    -0.8398 H       
  43 H43            1.7821    -5.3728     2.8982 H       
  44 H44            2.9626     4.8317     1.0411 H       
  45 H45            2.7025     6.8379     2.5714 H       
  46 H46            0.8679     6.6817     2.4641 H       
  47 H47            1.0091     4.3474     3.4466 H       
  48 H48            2.8437     4.5036     3.5539 H       
  49 H49           -0.5113    -5.9801     2.4568 H       
  50 H50           -0.0717    -6.7741     0.9265 H       
  51 H51            2.4196    -7.1645     0.5032 H       
  52 H52            3.6117    -6.1378     1.3413 H       
  53 H53           -1.6186    -8.1597     2.9923 H       
  54 H54           -1.3232   -10.2828     4.1964 H       
  55 H55            0.9388   -11.1859     4.5653 H       
  56 H56            2.9013    -9.9622     3.7321 H       
@<TRIPOS>BOND
   1    1    2 1
   2    1    6 1
   3    1    9 2
   4    2    3 2
   5    2   11 1
   6    3    4 1
   7    3   12 1
   8    4    5 2
   9    4   31 1
  10    5    6 1
  11    5   32 1
  12    6    7 1
  13    7    8 2
  14    7   10 1
  15    8    9 1
  16   10   19 1
  17   10   33 1
  18   10   34 1
  19   12   13 1
  20   12   17 1
  21   13   14 1
  22   13   35 1
  23   13   36 1
  24   14   15 1
  25   14   37 1
  26   14   38 1
  27   15   16 1
  28   15   18 1
  29   16   17 1
  30   16   39 1
  31   16   40 1
  32   17   41 1
  33   17   42 1
  34   18   22 1
  35   18   26 1
  36   18   43 1
  37   19   20 1
  38   19   21 1
  39   19   44 1
  40   20   21 1
  41   20   45 1
  42   20   46 1
  43   21   47 1
  44   21   48 1
  45   22   23 1
  46   22   49 1
  47   22   50 1
  48   23   24 ar
  49   23   27 ar
  50   24   25 1
  51   24   30 ar
  52   25   26 1
  53   26   51 1
  54   26   52 1
  55   27   28 ar
  56   27   53 1
  57   28   29 ar
  58   28   54 1
  59   29   30 ar
  60   29   55 1
  61   30   56 1

#	End of record

