#	Name: ASD00460028
#	Creating user name:	WinNT
#	Creation time:	15. 06. 2019 18:36

#	Modifying user name:	WinNT
#	Modification time:	15. 06. 2019 18:36

#	Program:	/corina/corina34_cracker 3.40 0067  02.08.2006

@<TRIPOS>MOLECULE
ASD00460028
  72   76    0    0    0
SMALL
NO_CHARGES


@<TRIPOS>ATOM
   1 O1             0.2096    -1.2661    -0.1430 O.2     
   2 C2            -0.2455    -0.1751    -0.4275 C.2     
   3 N3             0.5766     0.8848    -0.5581 N.am    
   4 C4             2.0187     0.7224    -0.3572 C.3     
   5 C5             2.6825     0.3677    -1.6893 C.3     
   6 C6             4.1885     0.1981    -1.4795 C.3     
   7 C7             4.8248    -0.2706    -2.7626 C.ar    
   8 C8             4.5925     0.4153    -3.9401 C.ar    
   9 C9             5.1762    -0.0146    -5.1171 C.ar    
  10 C10            5.9925    -1.1302    -5.1166 C.ar    
  11 C11            6.2255    -1.8156    -3.9389 C.ar    
  12 C12            5.6453    -1.3831    -2.7611 C.ar    
  13 C13            4.7909     1.5183    -1.0730 C.ar    
  14 C14            5.5841     1.5976     0.0563 C.ar    
  15 C15            6.1366     2.8086     0.4292 C.ar    
  16 C16            5.8962     3.9402    -0.3275 C.ar    
  17 C17            5.1037     3.8607    -1.4573 C.ar    
  18 C18            4.5548     2.6488    -1.8326 C.ar    
  19 C19            0.0283     2.1993    -0.9010 C.3     
  20 C20           -0.3244     2.9551     0.3817 C.3     
  21 N21           -0.8742     4.2733     0.0379 N.3     
  22 C22           -1.4424     4.9325     1.2228 C.3     
  23 C23           -1.9488     6.3236     0.8326 C.3     
  24 O24           -2.9016     6.1988    -0.2266 O.3     
  25 C25           -2.3816     5.5616    -1.3966 C.3     
  26 C26           -1.8796     4.1627    -1.0290 C.3     
  27 N27           -1.5715    -0.0269    -0.6178 N.am    
  28 C28           -2.4185    -1.1208    -0.4888 C.2     
  29 S29           -1.9120    -2.7578    -0.0823 S.3     
  30 C30           -3.5871    -3.2981    -0.1686 C.2     
  31 C31           -4.3545    -2.2397    -0.4841 C.2     
  32 N32           -3.7055    -1.0944    -0.6434 N.2     
  33 C33           -5.8259    -2.3451    -0.6379 C.ar    
  34 C34           -6.5775    -1.2180    -0.9659 C.ar    
  35 C35           -7.9462    -1.3221    -1.1082 C.ar    
  36 C36           -8.5724    -2.5419    -0.9255 C.ar    
  37 C37           -7.8316    -3.6639    -0.5998 C.ar    
  38 C38           -6.4616    -3.5728    -0.4606 C.ar    
  39 H39            2.4398     1.6535     0.0220 H       
  40 H40            2.1976    -0.0768     0.3621 H       
  41 H41            2.2613    -0.5634    -2.0685 H       
  42 H42            2.5036     1.1669    -2.4086 H       
  43 H43            4.3655    -0.5387    -0.6959 H       
  44 H44            3.9548     1.2869    -3.9405 H       
  45 H45            4.9942     0.5209    -6.0372 H       
  46 H46            6.4479    -1.4665    -6.0363 H       
  47 H47            6.8630    -2.6874    -3.9386 H       
  48 H48            5.8273    -1.9186    -1.8411 H       
  49 H49            5.7719     0.7135     0.6475 H       
  50 H50            6.7558     2.8707     1.3119 H       
  51 H51            6.3273     4.8865    -0.0357 H       
  52 H52            4.9157     4.7449    -2.0483 H       
  53 H53            3.9356     2.5867    -2.7153 H       
  54 H54            0.7691     2.7662    -1.4647 H       
  55 H55           -0.8693     2.0720    -1.5061 H       
  56 H56           -1.0652     2.3882     0.9455 H       
  57 H57            0.5732     3.0825     0.9869 H       
  58 H58           -2.2711     4.3382     1.6076 H       
  59 H59           -0.6741     5.0268     1.9903 H       
  60 H60           -2.4222     6.7936     1.6946 H       
  61 H61           -1.1109     6.9353     0.4982 H       
  62 H62           -3.1681     5.4805    -2.1469 H       
  63 H63           -1.5563     6.1512    -1.7958 H       
  64 H64           -1.4305     3.6952    -1.9053 H       
  65 H65           -2.7153     3.5562    -0.6802 H       
  66 H66           -1.9346     0.8435    -0.8448 H       
  67 H67           -3.9370    -4.3055     0.0020 H       
  68 H68           -6.0897    -0.2650    -1.1082 H       
  69 H69           -8.5296    -0.4495    -1.3624 H       
  70 H70           -9.6439    -2.6186    -1.0372 H       
  71 H71           -8.3258    -4.6137    -0.4583 H       
  72 H72           -5.8841    -4.4494    -0.2067 H       
@<TRIPOS>BOND
   1    1    2 2
   2    2    3 am
   3    2   27 am
   4    3    4 1
   5    3   19 1
   6    4    5 1
   7    4   39 1
   8    4   40 1
   9    5    6 1
  10    5   41 1
  11    5   42 1
  12    6    7 1
  13    6   13 1
  14    6   43 1
  15    7    8 ar
  16    7   12 ar
  17    8    9 ar
  18    8   44 1
  19    9   10 ar
  20    9   45 1
  21   10   11 ar
  22   10   46 1
  23   11   12 ar
  24   11   47 1
  25   12   48 1
  26   13   14 ar
  27   13   18 ar
  28   14   15 ar
  29   14   49 1
  30   15   16 ar
  31   15   50 1
  32   16   17 ar
  33   16   51 1
  34   17   18 ar
  35   17   52 1
  36   18   53 1
  37   19   20 1
  38   19   54 1
  39   19   55 1
  40   20   21 1
  41   20   56 1
  42   20   57 1
  43   21   22 1
  44   21   26 1
  45   22   23 1
  46   22   58 1
  47   22   59 1
  48   23   24 1
  49   23   60 1
  50   23   61 1
  51   24   25 1
  52   25   26 1
  53   25   62 1
  54   25   63 1
  55   26   64 1
  56   26   65 1
  57   27   28 1
  58   27   66 1
  59   28   29 1
  60   28   32 2
  61   29   30 1
  62   30   31 2
  63   30   67 1
  64   31   32 1
  65   31   33 1
  66   33   34 ar
  67   33   38 ar
  68   34   35 ar
  69   34   68 1
  70   35   36 ar
  71   35   69 1
  72   36   37 ar
  73   36   70 1
  74   37   38 ar
  75   37   71 1
  76   38   72 1

#	End of record

