#	Name: ASD02588054
#	Creating user name:	WinNT
#	Creation time:	15. 06. 2019 20:25

#	Modifying user name:	WinNT
#	Modification time:	15. 06. 2019 20:25

#	Program:	/corina/corina34_cracker 3.40 0067  02.08.2006

@<TRIPOS>MOLECULE
ASD02588054
  36   38    0    0    0
SMALL
NO_CHARGES


@<TRIPOS>ATOM
   1 C1            -0.0242     1.3692    -0.0340 C.2     
   2 N2            -0.0040    -0.0029    -0.0324 N.pl3   
   3 N3            -1.2292    -0.6858    -0.0185 N.2     
   4 C4            -2.3512    -0.0164    -0.0075 C.2     
   5 N5            -2.3826     1.3128    -0.0094 N.2     
   6 C6            -1.2708     2.0298    -0.0165 C.2     
   7 C7             1.3050     1.8103    -0.0487 C.2     
   8 C8             2.1101     0.6483    -0.0556 C.2     
   9 C9             1.2860    -0.4228    -0.0455 C.2     
  10 N10           -1.3298     3.4100    -0.0179 N.pl3   
  11 C11            1.7315    -1.8624    -0.0478 C.3     
  12 O12            0.6888    -2.7106    -0.5761 O.3     
  13 C13            0.9920    -4.0355    -0.0878 C.3     
  14 C14            1.4526    -3.8225     1.3713 C.3     
  15 C15            1.9503    -2.3600     1.3982 C.3     
  16 C16           -0.2578    -4.9171    -0.1284 C.3     
  17 O17           -0.6418    -5.1367    -1.4872 O.3     
  18 F18            3.3076    -2.3102     1.7337 F       
  19 C19            1.7692     3.2005    -0.0554 C.2     
  20 N20            1.9190     3.8667     1.1066 N.am    
  21 S21            2.1211     3.9783    -1.5394 S.2     
  22 O22            2.5164    -4.7195     1.6966 O.3     
  23 *23            2.5585    -5.0901     3.0563 Du      
  24 H24           -3.2839    -0.5608     0.0031 H       
  25 H25            3.1897     0.6213    -0.0670 H       
  26 H26           -2.1856     3.8588    -0.1024 H       
  27 H27           -0.5155     3.9304     0.0658 H       
  28 H28            2.6448    -1.9753    -0.6320 H       
  29 H29            1.7925    -4.4831    -0.6768 H       
  30 H30            0.6170    -3.9543     2.0587 H       
  31 H31            1.3608    -1.7688     2.0989 H       
  32 H32           -0.0431    -5.8739     0.3476 H       
  33 H33           -1.0698    -4.4210     0.4030 H       
  34 H34           -1.4289    -5.6890    -1.5892 H       
  35 H35            1.7197     3.4260     1.9474 H       
  36 H36            2.2262     4.7867     1.1021 H       
@<TRIPOS>BOND
   1    1    2 1
   2    1    7 2
   3    1    6 1
   4    2    3 1
   5    2    9 1
   6    3    4 2
   7    4    5 1
   8    4   24 1
   9    5    6 2
  10    6   10 1
  11    7    8 1
  12    7   19 1
  13    8    9 2
  14    8   25 1
  15    9   11 1
  16   10   26 1
  17   10   27 1
  18   11   12 1
  19   11   15 1
  20   11   28 1
  21   12   13 1
  22   13   14 1
  23   13   16 1
  24   13   29 1
  25   14   15 1
  26   14   22 1
  27   14   30 1
  28   15   18 1
  29   15   31 1
  30   16   17 1
  31   16   32 1
  32   16   33 1
  33   17   34 1
  34   19   20 am
  35   19   21 2
  36   20   35 1
  37   20   36 1
  38   22   23 1

#	End of record

