#	Name: ASD03091932
#	Creating user name:	WinNT
#	Creation time:	15. 06. 2019 20:31

#	Modifying user name:	WinNT
#	Modification time:	15. 06. 2019 20:31

#	Program:	/corina/corina34_cracker 3.40 0067  02.08.2006

@<TRIPOS>MOLECULE
ASD03091932
  47   50    0    0    0
SMALL
NO_CHARGES


@<TRIPOS>ATOM
   1 C1            -0.0150     1.4036     0.0122 C.ar    
   2 C2            -1.2271     2.0732     0.0343 C.ar    
   3 C3            -2.4099     1.3526     0.0344 C.ar    
   4 C4            -2.3910    -0.0341     0.0125 C.ar    
   5 C5            -1.1912    -0.7146    -0.0096 C.ar    
   6 C6             0.0034     0.0002    -0.0097 C.ar    
   7 O7             1.1658     2.0702     0.0167 O.3     
   8 C8             2.2613     1.4541     0.6938 C.3     
   9 N9             2.4079     0.0564     0.2862 N.am    
  10 C10            1.3151    -0.6782    -0.0267 C.2     
  11 C11           -3.6879    -0.8014     0.0132 C.3     
  12 C12           -4.2321    -0.8669     1.4170 C.ar    
  13 C13           -5.0869     0.1190     1.8852 C.ar    
  14 O14            1.4100    -1.8562    -0.3125 O.2     
  15 C15            3.7402    -0.5488     0.2162 C.3     
  16 C16            4.5944     0.1751    -0.8450 C.3     
  17 C17            4.4692    -0.3755     1.5602 C.3     
  18 C18            5.7409     0.4477     1.2689 C.3     
  19 C19            5.4061     1.2156    -0.0340 C.3     
  20 O20            4.8244    -1.6531     2.0927 O.3     
  21 Cl21          -3.9291     2.1922     0.0629 Cl      
  22 F22           -1.2556     3.4237     0.0561 F       
  23 C23           -5.5634     0.0174     3.1835 C.ar    
  24 C24           -5.1730    -1.0554     3.9620 C.ar    
  25 N25           -4.3576    -1.9749     3.4835 N.ar    
  26 C26           -3.8897    -1.9137     2.2523 C.ar    
  27 C27           -5.6846    -1.1759     5.3744 C.3     
  28 H28           -1.1788    -1.7944    -0.0264 H       
  29 H29            3.1781     1.9943     0.4575 H       
  30 H30            2.0880     1.4974     1.7691 H       
  31 H31           -4.4080    -0.2987    -0.6325 H       
  32 H32           -3.5125    -1.8119    -0.3559 H       
  33 H33           -5.3747     0.9466     1.2538 H       
  34 H34            3.6566    -1.6075    -0.0294 H       
  35 H35            5.2634    -0.5282    -1.3408 H       
  36 H36            3.9554     0.6738    -1.5737 H       
  37 H37            3.8317     0.1590     2.2645 H       
  38 H38            5.9385     1.1453     2.0827 H       
  39 H39            6.5950    -0.2116     1.1143 H       
  40 H40            6.3174     1.4928    -0.5640 H       
  41 H41            4.8002     2.0957     0.1812 H       
  42 H42            5.2875    -1.6108     2.9406 H       
  43 H43           -6.2308     0.7675     3.5813 H       
  44 H44           -3.2275    -2.6879     1.8938 H       
  45 H45           -6.6149    -1.7440     5.3766 H       
  46 H46           -4.9436    -1.6898     5.9867 H       
  47 H47           -5.8655    -0.1811     5.7814 H       
@<TRIPOS>BOND
   1    1    6 ar
   2    1    7 1
   3    1    2 ar
   4    2    3 ar
   5    2   22 1
   6    3    4 ar
   7    3   21 1
   8    4    5 ar
   9    4   11 1
  10    5    6 ar
  11    5   28 1
  12    6   10 1
  13    7    8 1
  14    8    9 1
  15    8   29 1
  16    8   30 1
  17    9   10 am
  18    9   15 1
  19   10   14 2
  20   11   12 1
  21   11   31 1
  22   11   32 1
  23   12   13 ar
  24   12   26 ar
  25   13   23 ar
  26   13   33 1
  27   15   17 1
  28   15   16 1
  29   15   34 1
  30   16   19 1
  31   16   35 1
  32   16   36 1
  33   17   18 1
  34   17   20 1
  35   17   37 1
  36   18   19 1
  37   18   38 1
  38   18   39 1
  39   19   40 1
  40   19   41 1
  41   20   42 1
  42   23   24 ar
  43   23   43 1
  44   24   25 ar
  45   24   27 1
  46   25   26 ar
  47   26   44 1
  48   27   45 1
  49   27   46 1
  50   27   47 1

#	End of record

