#	Name: ASD01478054
#	Creating user name:	WinNT
#	Creation time:	15. 06. 2019 19:21

#	Modifying user name:	WinNT
#	Modification time:	15. 06. 2019 19:21

#	Program:	/corina/corina34_cracker 3.40 0067  02.08.2006

@<TRIPOS>MOLECULE
ASD01478054
  21   21    0    0    0
SMALL
NO_CHARGES


@<TRIPOS>ATOM
   1 C1            -0.0186     1.5210     0.0104 C.3     
   2 C2             0.0021    -0.0041     0.0020 C.3     
   3 O3            -0.5031    -0.4878    -1.2433 O.3     
   4 C4             0.4309    -0.3632    -2.3202 C.3     
   5 O5             0.5216     1.0081    -2.7143 O.3     
   6 C6             1.7758     1.6191    -2.4299 C.3     
   7 C7             2.2290     1.2427    -1.0163 C.3     
   8 C8             1.4171     2.0603    -0.0004 C.3     
   9 O9            -0.6898     1.9805     1.1853 O.3     
  10 H10           -0.5476     1.8811    -0.8720 H       
  11 H11            1.0256    -0.3533     0.1381 H       
  12 H12           -0.6190    -0.3794     0.8154 H       
  13 H13            1.4103    -0.7133    -1.9943 H       
  14 H14            0.0931    -0.9628    -3.1655 H       
  15 H15            2.5176     1.2765    -3.1513 H       
  16 H16            1.6757     2.7022    -2.5017 H       
  17 H17            2.0581     0.1792    -0.8491 H       
  18 H18            3.2895     1.4666    -0.9010 H       
  19 H19            1.4133     3.1104    -0.2925 H       
  20 H20            1.8568     1.9555     0.9915 H       
  21 H21           -1.6067     1.6818     1.2567 H       
@<TRIPOS>BOND
   1    1    2 1
   2    1    8 1
   3    1    9 1
   4    1   10 1
   5    2    3 1
   6    2   11 1
   7    2   12 1
   8    3    4 1
   9    4    5 1
  10    4   13 1
  11    4   14 1
  12    5    6 1
  13    6    7 1
  14    6   15 1
  15    6   16 1
  16    7    8 1
  17    7   17 1
  18    7   18 1
  19    8   19 1
  20    8   20 1
  21    9   21 1

#	End of record

