#	Name: ASD07931689
#	Creating user name:	WinNT
#	Creation time:	15. 06. 2019 21:13

#	Modifying user name:	WinNT
#	Modification time:	15. 06. 2019 21:13

#	Program:	/corina/corina34_cracker 3.40 0067  02.08.2006

@<TRIPOS>MOLECULE
ASD07931689
  48   52    0    0    0
SMALL
NO_CHARGES


@<TRIPOS>ATOM
   1 C1             0.2000    -0.0499    -0.4470 C.2     
   2 C2             0.4759    -1.3805    -0.6039 C.2     
   3 C3             1.8750    -1.8139    -0.6285 C.2     
   4 N4             2.8501    -0.8981    -0.4951 N.am    
   5 C5             2.5468     0.4358    -0.3405 C.2     
   6 C6             1.2546     0.8619    -0.3147 C.2     
   7 C7             4.2634    -1.2992    -0.5091 C.3     
   8 C8             5.0472    -0.2526    -1.3149 C.3     
   9 N9             4.8822     1.0556    -0.6656 N.am    
  10 C10            3.6575     1.4038    -0.2035 C.2     
  11 C11            6.0209     1.9659    -0.5210 C.3     
  12 O12            2.1523    -2.9930    -0.7681 O.2     
  13 N13           -0.5591    -2.3104    -0.7380 N.pl3   
  14 C14           -1.4562    -2.3884    -1.7723 C.2     
  15 C15           -0.8630    -3.3117     0.1292 C.2     
  16 N16           -1.8906    -3.9673    -0.3371 N.2     
  17 C17           -2.2747    -3.4227    -1.5013 C.2     
  18 C18           -3.4238    -3.8880    -2.3581 C.3     
  19 C19            6.6791     2.2224    -1.8633 C.2     
  20 C20            7.1580     1.2987     0.2891 C.3     
  21 O21            8.3307     1.7924    -0.3895 O.3     
  22 N22            7.9566     2.1058    -1.7164 N.2     
  23 C23            5.9795     2.5488    -3.1212 C.ar    
  24 O24            3.4745     2.4892     0.3128 O.2     
  25 C25            6.6888     2.6074    -4.3224 C.ar    
  26 C26            4.6048     2.7943    -3.1150 C.ar    
  27 C27            3.9551     3.0989    -4.2926 C.ar    
  28 C28            4.6632     3.1619    -5.4819 C.ar    
  29 C29            6.0287     2.9133    -5.4962 C.ar    
  30 F30            6.7138     2.9763    -6.6589 F       
  31 F31            4.0213     3.4603    -6.6326 F       
  32 H32           -0.8232     0.2954    -0.4299 H       
  33 H33            1.0405     1.9133    -0.1913 H       
  34 H34            4.6448    -1.3397     0.5112 H       
  35 H35            4.3639    -2.2773    -0.9796 H       
  36 H36            6.1034    -0.5212    -1.3344 H       
  37 H37            4.6590    -0.2079    -2.3325 H       
  38 H38            5.7095     2.9020    -0.0575 H       
  39 H39           -1.4981    -1.7441    -2.6380 H       
  40 H40           -0.3413    -3.5288     1.0496 H       
  41 H41           -4.3337    -3.3674    -2.0595 H       
  42 H42           -3.2080    -3.6714    -3.4043 H       
  43 H43           -3.5608    -4.9617    -2.2301 H       
  44 H44            7.1413     1.6273     1.3283 H       
  45 H45            7.0979     0.2124     0.2240 H       
  46 H46            7.7514     2.4144    -4.3335 H       
  47 H47            4.0510     2.7454    -2.1891 H       
  48 H48            2.8919     3.2885    -4.2879 H       
@<TRIPOS>BOND
   1    1    2 2
   2    1    6 1
   3    1   32 1
   4    2    3 1
   5    2   13 1
   6    3    4 am
   7    3   12 2
   8    4    5 1
   9    4    7 1
  10    5    6 2
  11    5   10 1
  12    6   33 1
  13    7    8 1
  14    7   34 1
  15    7   35 1
  16    8    9 1
  17    8   36 1
  18    8   37 1
  19    9   10 am
  20    9   11 1
  21   10   24 2
  22   11   19 1
  23   11   20 1
  24   11   38 1
  25   13   14 1
  26   13   15 1
  27   14   17 2
  28   14   39 1
  29   15   16 2
  30   15   40 1
  31   16   17 1
  32   17   18 1
  33   18   41 1
  34   18   42 1
  35   18   43 1
  36   19   23 1
  37   19   22 2
  38   20   21 1
  39   20   44 1
  40   20   45 1
  41   21   22 1
  42   23   25 ar
  43   23   26 ar
  44   25   29 ar
  45   25   46 1
  46   26   27 ar
  47   26   47 1
  48   27   28 ar
  49   27   48 1
  50   28   29 ar
  51   28   31 1
  52   29   30 1

#	End of record

