#	Name: ASD03430869
#	Creating user name:	WinNT
#	Creation time:	15. 06. 2019 20:41

#	Modifying user name:	WinNT
#	Modification time:	15. 06. 2019 20:41

#	Program:	/corina/corina34_cracker 3.40 0067  02.08.2006

@<TRIPOS>MOLECULE
ASD03430869
  38   42    0    0    0
SMALL
NO_CHARGES


@<TRIPOS>ATOM
   1 O1            -0.0173     1.4250     0.0099 O.3     
   2 C2             0.0021    -0.0041     0.0020 C.3     
   3 C3             0.1366    -0.5321    -1.4178 C.3     
   4 C4             1.4652    -0.1531    -2.0528 C.3     
   5 O5             1.5651     1.2627    -2.2167 O.3     
   6 C6             2.0045     1.9596    -1.1281 C.ar    
   7 C7             1.2021     2.0384     0.0015 C.ar    
   8 C8             3.2377     2.5838    -1.1516 C.ar    
   9 C9             3.6862     3.2875    -0.0365 C.ar    
  10 C10            2.8746     3.3556     1.0919 C.ar    
  11 C11            1.6417     2.7359     1.1132 C.ar    
  12 O12            4.8599     3.9544     0.1576 O.3     
  13 C13            3.6220     4.1776     2.1078 C.3     
  14 C14            4.7181     4.8543     1.2737 C.3     
  15 N15            2.8158     4.9148     4.1153 N.am    
  16 C16            2.7393     5.1780     2.7952 C.2     
  17 C17            4.1966     3.3325     3.2064 C.ar    
  18 C18            5.0639     2.2638     3.2286 C.ar    
  19 C19            5.4124     1.6794     4.4337 C.ar    
  20 C20            4.8872     2.1717     5.6141 C.ar    
  21 C21            4.0176     3.2427     5.5968 C.ar    
  22 C22            3.6623     3.8378     4.3892 C.ar    
  23 O23            2.0858     6.0525     2.2668 O.2     
  24 H24            0.8453    -0.3550     0.5970 H       
  25 H25           -0.9243    -0.3781     0.4379 H       
  26 H26            0.0509    -1.6185    -1.4000 H       
  27 H27           -0.6730    -0.1256    -2.0238 H       
  28 H28            2.2789    -0.4985    -1.4149 H       
  29 H29            1.5465    -0.6335    -3.0278 H       
  30 H30            3.8547     2.5252    -2.0360 H       
  31 H31            1.0213     2.7951     1.9953 H       
  32 H32            5.6483     4.9211     1.8379 H       
  33 H33            4.3960     5.8400     0.9378 H       
  34 H34            2.3386     5.4150     4.7956 H       
  35 H35            5.4729     1.8815     2.3051 H       
  36 H36            6.0931     0.8411     4.4520 H       
  37 H37            5.1588     1.7153     6.5545 H       
  38 H38            3.6116     3.6213     6.5232 H       
@<TRIPOS>BOND
   1    1    2 1
   2    1    7 1
   3    2    3 1
   4    2   24 1
   5    2   25 1
   6    3    4 1
   7    3   26 1
   8    3   27 1
   9    4    5 1
  10    4   28 1
  11    4   29 1
  12    5    6 1
  13    6    7 ar
  14    6    8 ar
  15    7   11 ar
  16    8    9 ar
  17    8   30 1
  18    9   10 ar
  19    9   12 1
  20   10   11 ar
  21   10   13 1
  22   11   31 1
  23   12   14 1
  24   13   14 1
  25   13   16 1
  26   13   17 1
  27   14   32 1
  28   14   33 1
  29   15   16 am
  30   15   22 1
  31   15   34 1
  32   16   23 2
  33   17   18 ar
  34   17   22 ar
  35   18   19 ar
  36   18   35 1
  37   19   20 ar
  38   19   36 1
  39   20   21 ar
  40   20   37 1
  41   21   22 ar
  42   21   38 1

#	End of record

