#	Name: ASD08830023
#	Creating user name:	WinNT
#	Creation time:	15. 06. 2019 21:19

#	Modifying user name:	WinNT
#	Modification time:	15. 06. 2019 21:19

#	Program:	/corina/corina34_cracker 3.40 0067  02.08.2006

@<TRIPOS>MOLECULE
ASD08830023
  52   55    0    0    0
SMALL
NO_CHARGES


@<TRIPOS>ATOM
   1 C1            -0.0172     1.4144     0.0098 C.ar    
   2 C2             0.0021    -0.0041     0.0020 C.ar    
   3 C3             1.1959     2.1287     0.0021 C.ar    
   4 C4             2.3769     1.4621    -0.0133 C.ar    
   5 C5             2.4108     0.0535    -0.0217 C.ar    
   6 C6             1.2315    -0.6786    -0.0139 C.ar    
   7 C7             3.7045    -0.6459    -0.0393 C.2     
   8 C8             4.9879     0.1439    -0.0483 C.3     
   9 C9             6.1781    -0.8173    -0.0663 C.3     
  10 N10            7.4292    -0.0475    -0.0751 N.3     
  11 O11            3.7384    -1.8581    -0.0465 O.2     
  12 C12           -1.2511     2.0843     0.0194 C.ar    
  13 C13           -1.2141    -0.7105     0.0099 C.ar    
  14 C14           -2.3907    -0.0259     0.0249 C.ar    
  15 C15           -2.4091     1.3672     0.0210 C.ar    
  16 C16            8.5873    -0.9229     0.1458 C.3     
  17 C17            9.8771    -0.1148    -0.0141 C.3     
  18 C18            9.8822     1.0346     0.9975 C.3     
  19 C19           11.1219     1.8696     0.8048 C.2     
  20 C20            7.3868     1.0368     0.9143 C.3     
  21 C21            8.6408     1.9034     0.7773 C.3     
  22 C22           11.7231     2.5736     1.9537 C.ar    
  23 C23           12.8749     3.3548     1.7972 C.ar    
  24 C24           13.4034     3.9961     2.9005 C.ar    
  25 O25           11.6235     1.9625    -0.2905 O.2     
  26 C26           11.1549     2.4843     3.2307 C.ar    
  27 C27           11.7517     3.1602     4.2771 C.ar    
  28 N28           12.8393     3.8799     4.0861 N.ar    
  29 H29            1.1860     3.2087     0.0080 H       
  30 H30            3.3029     2.0179    -0.0195 H       
  31 H31            1.2604    -1.7581    -0.0203 H       
  32 H32            5.0187     0.7770    -0.9350 H       
  33 H33            5.0375     0.7668     0.8448 H       
  34 H34            6.1473    -1.4504     0.8205 H       
  35 H35            6.1285    -1.4403    -0.9594 H       
  36 H36           -1.2819     3.1638     0.0257 H       
  37 H37           -1.2146    -1.7904     0.0038 H       
  38 H38           -3.3233    -0.5705     0.0306 H       
  39 H39           -3.3559     1.8865     0.0335 H       
  40 H40            8.5416    -1.3386     1.1524 H       
  41 H41            8.5740    -1.7336    -0.5827 H       
  42 H42           10.7362    -0.7613     0.1653 H       
  43 H43            9.9301     0.2897    -1.0248 H       
  44 H44            9.8696     0.6294     2.0093 H       
  45 H45            6.5016     1.6495     0.7439 H       
  46 H46            7.3468     0.6120     1.9173 H       
  47 H47            8.6165     2.6989     1.5221 H       
  48 H48            8.6743     2.3397    -0.2210 H       
  49 H49           13.3429     3.4540     0.8289 H       
  50 H50           14.2913     4.6009     2.7903 H       
  51 H51           10.2638     1.8965     3.3946 H       
  52 H52           11.3213     3.0977     5.2657 H       
@<TRIPOS>BOND
   1    1    2 ar
   2    1    3 ar
   3    1   12 ar
   4    2   13 ar
   5    2    6 ar
   6    3    4 ar
   7    3   29 1
   8    4    5 ar
   9    4   30 1
  10    5    6 ar
  11    5    7 1
  12    6   31 1
  13    7    8 1
  14    7   11 2
  15    8    9 1
  16    8   32 1
  17    8   33 1
  18    9   10 1
  19    9   34 1
  20    9   35 1
  21   10   16 1
  22   10   20 1
  23   12   15 ar
  24   12   36 1
  25   13   14 ar
  26   13   37 1
  27   14   15 ar
  28   14   38 1
  29   15   39 1
  30   16   17 1
  31   16   40 1
  32   16   41 1
  33   17   18 1
  34   17   42 1
  35   17   43 1
  36   18   19 1
  37   18   21 1
  38   18   44 1
  39   19   22 1
  40   19   25 2
  41   20   21 1
  42   20   45 1
  43   20   46 1
  44   21   47 1
  45   21   48 1
  46   22   23 ar
  47   22   26 ar
  48   23   24 ar
  49   23   49 1
  50   24   28 ar
  51   24   50 1
  52   26   27 ar
  53   26   51 1
  54   27   28 ar
  55   27   52 1

#	End of record

