#	Name: ASD05740262
#	Creating user name:	WinNT
#	Creation time:	15. 06. 2019 21:03

#	Modifying user name:	WinNT
#	Modification time:	15. 06. 2019 21:03

#	Program:	/corina/corina34_cracker 3.40 0067  02.08.2006

@<TRIPOS>MOLECULE
ASD05740262
  61   65    0    0    0
SMALL
NO_CHARGES


@<TRIPOS>ATOM
   1 C1             0.9532    -0.8278    -0.0443 C.3     
   2 N2             0.0376    -0.1448     0.8802 N.3     
   3 C3            -1.2680    -0.6292     0.7422 C.ar    
   4 C4            -2.2878    -0.1110     1.5298 C.ar    
   5 C5            -3.5760    -0.5886     1.3933 C.ar    
   6 C6            -3.8520    -1.5872     0.4685 C.ar    
   7 C7            -2.8323    -2.1054    -0.3190 C.ar    
   8 C8            -1.5450    -1.6241    -0.1863 C.ar    
   9 N9            -5.1588    -2.0720     0.3304 N.pl3   
  10 C10           -6.2331    -1.2226     0.5094 C.ar    
  11 N11           -6.0007     0.0715     0.7010 N.ar    
  12 N12           -7.4572    -1.7270     0.4783 N.ar    
  13 C13           -8.5151    -0.9416     0.6460 C.ar    
  14 C14           -8.3079     0.4389     0.8575 C.ar    
  15 C15           -6.9919     0.9250     0.8766 C.ar    
  16 N16           -9.7869    -1.4555     0.6149 N.am    
  17 C17          -10.8561    -0.6542     0.7847 C.2     
  18 C18          -10.6763     0.7822     1.0057 C.2     
  19 C19           -9.4108     1.3039     1.0397 C.2     
  20 C20           -9.9838    -2.8903     0.3943 C.3     
  21 O21          -11.9784    -1.1267     0.7538 O.2     
  22 C22           -9.9957    -3.6165     1.7410 C.3     
  23 C23            0.5029    -0.2730     2.2683 C.3     
  24 C24            1.9003     0.3387     2.3936 C.3     
  25 N25            2.8159    -0.3443     1.4690 N.3     
  26 C26            2.3505    -0.2162     0.0810 C.3     
  27 C27          -11.8532     1.6630     1.1914 C.ar    
  28 C28          -12.1422     2.6524     0.2521 C.ar    
  29 C29          -13.2396     3.4697     0.4306 C.ar    
  30 C30          -14.0521     3.3093     1.5387 C.ar    
  31 C31          -13.7705     2.3295     2.4739 C.ar    
  32 C32          -12.6795     1.5021     2.3032 C.ar    
  33 C33            4.1864     0.1642     1.6139 C.3     
  34 H34            0.9968    -1.8882     0.2042 H       
  35 H35            0.5941    -0.7080    -1.0665 H       
  36 H36           -2.0731     0.6653     2.2492 H       
  37 H37           -4.3690    -0.1859     2.0060 H       
  38 H38           -3.0470    -2.8820    -1.0382 H       
  39 H39           -0.7520    -2.0271    -0.7987 H       
  40 H40           -5.3094    -3.0043     0.1090 H       
  41 H41           -6.7940     1.9747     1.0356 H       
  42 H42           -9.2577     2.3606     1.2018 H       
  43 H43          -10.9341    -3.0527    -0.1143 H       
  44 H44           -9.1717    -3.2783    -0.2205 H       
  45 H45          -10.1422    -4.6840     1.5769 H       
  46 H46           -9.0454    -3.4542     2.2496 H       
  47 H47          -10.8078    -3.2285     2.3558 H       
  48 H48           -0.1844     0.2514     2.9321 H       
  49 H49            0.5414    -1.3270     2.5431 H       
  50 H50            1.8567     1.3991     2.1450 H       
  51 H51            2.2594     0.2189     3.4157 H       
  52 H52            3.0379    -0.7405    -0.5829 H       
  53 H53            2.3121     0.8379    -0.1938 H       
  54 H54          -11.5082     2.7790    -0.6130 H       
  55 H55          -13.4645     4.2363    -0.2962 H       
  56 H56          -14.9095     3.9518     1.6744 H       
  57 H57          -14.4084     2.2090     3.3370 H       
  58 H58          -12.4608     0.7373     3.0337 H       
  59 H59            4.5304    -0.0041     2.6344 H       
  60 H60            4.8432    -0.3582     0.9183 H       
  61 H61            4.2026     1.2321     1.3964 H       
@<TRIPOS>BOND
   1    1    2 1
   2    1   26 1
   3    1   34 1
   4    1   35 1
   5    2    3 1
   6    2   23 1
   7    3    4 ar
   8    3    8 ar
   9    4    5 ar
  10    4   36 1
  11    5    6 ar
  12    5   37 1
  13    6    7 ar
  14    6    9 1
  15    7    8 ar
  16    7   38 1
  17    8   39 1
  18    9   10 1
  19    9   40 1
  20   10   11 ar
  21   10   12 ar
  22   11   15 ar
  23   12   13 ar
  24   13   14 ar
  25   13   16 1
  26   14   15 ar
  27   14   19 1
  28   15   41 1
  29   16   17 am
  30   16   20 1
  31   17   18 1
  32   17   21 2
  33   18   19 2
  34   18   27 1
  35   19   42 1
  36   20   22 1
  37   20   43 1
  38   20   44 1
  39   22   45 1
  40   22   46 1
  41   22   47 1
  42   23   24 1
  43   23   48 1
  44   23   49 1
  45   24   25 1
  46   24   50 1
  47   24   51 1
  48   25   26 1
  49   25   33 1
  50   26   52 1
  51   26   53 1
  52   27   28 ar
  53   27   32 ar
  54   28   29 ar
  55   28   54 1
  56   29   30 ar
  57   29   55 1
  58   30   31 ar
  59   30   56 1
  60   31   32 ar
  61   31   57 1
  62   32   58 1
  63   33   59 1
  64   33   60 1
  65   33   61 1

#	End of record

