#	Name: ASD05633007
#	Creating user name:	WinNT
#	Creation time:	15. 06. 2019 21:01

#	Modifying user name:	WinNT
#	Modification time:	15. 06. 2019 21:01

#	Program:	/corina/corina34_cracker 3.40 0067  02.08.2006

@<TRIPOS>MOLECULE
ASD05633007
  41   42    0    0    0
SMALL
NO_CHARGES


@<TRIPOS>ATOM
   1 C1            -0.0167     1.3792     0.0096 C.ar    
   2 C2             0.0021    -0.0041     0.0020 C.ar    
   3 C3            -1.1832    -0.7183     0.0095 C.ar    
   4 C4            -2.3920    -0.0541     0.0246 C.ar    
   5 C5            -2.4180     1.3415     0.0328 C.ar    
   6 C6            -1.2190     2.0557     0.0305 C.ar    
   7 S7             1.4982     2.2789    -0.0000 S.o2    
   8 O8             1.1737     3.5181     0.6150 O.2     
   9 O9             2.4369     1.3911     0.5915 O.2     
  10 C10            1.8706     2.5195    -1.7590 C.3     
  11 C11           -3.7101     2.0600     0.0486 C.2     
  12 O12           -3.7297     3.2753     0.0557 O.2     
  13 N13           -4.8662     1.3673     0.0550 N.am    
  14 C14           -6.1466     2.0792     0.0706 C.3     
  15 C15           -7.2760     1.0815     0.0751 C.ar    
  16 C16           -7.9422     0.7865    -1.0994 C.ar    
  17 C17           -8.9784    -0.1287    -1.0953 C.ar    
  18 C18           -9.3479    -0.7490     0.0833 C.ar    
  19 C19           -8.6809    -0.4546     1.2580 C.ar    
  20 C20           -7.6421     0.4571     1.2531 C.ar    
  21 C21           -6.9151     0.7780     2.5335 C.3     
  22 C22            3.1601     3.2868    -1.8991 C.2     
  23 O23            3.7657     3.6356    -0.9135 O.2     
  24 O24            3.6358     3.5828    -3.1189 O.3     
  25 H25            0.9459    -0.5289    -0.0102 H       
  26 H26           -1.1616    -1.7980     0.0031 H       
  27 H27           -3.3164    -0.6127     0.0297 H       
  28 H28           -1.2323     3.1356     0.0368 H       
  29 H29            1.9706     1.5491    -2.2452 H       
  30 H30            1.0618     3.0795    -2.2284 H       
  31 H31           -4.8506     0.3975     0.0494 H       
  32 H32           -6.2064     2.6997     0.9648 H       
  33 H33           -6.2224     2.7099    -0.8151 H       
  34 H34           -7.6535     1.2713    -2.0203 H       
  35 H35           -9.4994    -0.3587    -2.0129 H       
  36 H36          -10.1578    -1.4635     0.0867 H       
  37 H37           -8.9698    -0.9391     2.1790 H       
  38 H38           -6.0739     0.0956     2.6545 H       
  39 H39           -6.5484     1.8038     2.4959 H       
  40 H40           -7.5973     0.6668     3.3764 H       
  41 H41            4.4664     4.0764    -3.1583 H       
@<TRIPOS>BOND
   1    1    2 ar
   2    1    7 1
   3    1    6 ar
   4    2    3 ar
   5    2   25 1
   6    3    4 ar
   7    3   26 1
   8    4    5 ar
   9    4   27 1
  10    5    6 ar
  11    5   11 1
  12    6   28 1
  13    7    8 2
  14    7    9 2
  15    7   10 1
  16   10   22 1
  17   10   29 1
  18   10   30 1
  19   11   12 2
  20   11   13 am
  21   13   14 1
  22   13   31 1
  23   14   15 1
  24   14   32 1
  25   14   33 1
  26   15   16 ar
  27   15   20 ar
  28   16   17 ar
  29   16   34 1
  30   17   18 ar
  31   17   35 1
  32   18   19 ar
  33   18   36 1
  34   19   20 ar
  35   19   37 1
  36   20   21 1
  37   21   38 1
  38   21   39 1
  39   21   40 1
  40   22   23 2
  41   22   24 1
  42   24   41 1

#	End of record

