#	Name: ASD01202008
#	Creating user name:	WinNT
#	Creation time:	15. 06. 2019 19:09

#	Modifying user name:	WinNT
#	Modification time:	15. 06. 2019 19:09

#	Program:	/corina/corina34_cracker 3.40 0067  02.08.2006

@<TRIPOS>MOLECULE
ASD01202008
  35   37    0    0    0
SMALL
NO_CHARGES


@<TRIPOS>ATOM
   1 C1            -0.0179     1.4673     0.0101 C.2     
   2 C2             0.0021    -0.0041     0.0020 C.2     
   3 O3             1.0636    -0.5979    -0.0113 O.2     
   4 N4            -1.1558    -0.6938     0.0094 N.am    
   5 H5            -2.0023    -0.2203     0.0200 H       
   6 C6             1.1066     2.2328     0.0035 C.2     
   7 S7             0.7109     3.8906     0.0162 S.3     
   8 C8            -1.0120     3.5563     0.0308 C.2     
   9 C9            -1.2335     2.2473     0.0197 C.2     
  10 C10            2.5119     1.6887    -0.0124 C.3     
  11 C11           -2.0902     4.6089     0.0468 C.3     
  12 C12           -1.1370    -2.0827     0.0017 C.2     
  13 S13           -2.5241    -3.0809     0.0096 S.3     
  14 N14           -0.0677    -2.8089    -0.0180 N.2     
  15 C15           -1.5056    -4.5146    -0.0158 C.2     
  16 C16           -0.2183    -4.1279    -0.0279 C.2     
  17 C17            0.9367    -5.1180    -0.0500 C.3     
  18 C18            0.4159    -6.4906     0.3818 C.3     
  19 C19           -0.8209    -6.8497    -0.4470 C.3     
  20 C20           -1.9847    -5.9469    -0.0231 C.3     
  21 H21           -2.2212     1.8104     0.0256 H       
  22 H22            2.8411     1.5628    -1.0438 H       
  23 H23            3.1769     2.3849     0.4988 H       
  24 H24            2.5342     0.7250     0.4964 H       
  25 H25           -1.6324     5.5981     0.0473 H       
  26 H26           -2.7179     4.4996    -0.8376 H       
  27 H27           -2.7004     4.4905     0.9423 H       
  28 H28            1.3438    -5.1824    -1.0590 H       
  29 H29            1.7138    -4.7885     0.6397 H       
  30 H30            1.1908    -7.2402     0.2218 H       
  31 H31            0.1497    -6.4625     1.4384 H       
  32 H32           -0.6079    -6.6973    -1.5051 H       
  33 H33           -1.0862    -7.8925    -0.2733 H       
  34 H34           -2.3189    -6.2259     0.9762 H       
  35 H35           -2.8073    -6.0542    -0.7301 H       
@<TRIPOS>BOND
   1    1    2 1
   2    1    6 2
   3    1    9 1
   4    2    3 2
   5    2    4 am
   6    4    5 1
   7    4   12 1
   8    6    7 1
   9    6   10 1
  10    7    8 1
  11    8    9 2
  12    8   11 1
  13    9   21 1
  14   10   22 1
  15   10   23 1
  16   10   24 1
  17   11   25 1
  18   11   26 1
  19   11   27 1
  20   12   13 1
  21   12   14 2
  22   13   15 1
  23   14   16 1
  24   15   16 2
  25   15   20 1
  26   16   17 1
  27   17   18 1
  28   17   28 1
  29   17   29 1
  30   18   19 1
  31   18   30 1
  32   18   31 1
  33   19   20 1
  34   19   32 1
  35   19   33 1
  36   20   34 1
  37   20   35 1

#	End of record

