#	Name: ASD01000126
#	Creating user name:	WinNT
#	Creation time:	15. 06. 2019 18:54

#	Modifying user name:	WinNT
#	Modification time:	15. 06. 2019 18:54

#	Program:	/corina/corina34_cracker 3.40 0067  02.08.2006

@<TRIPOS>MOLECULE
ASD01000126
  35   37    0    0    0
SMALL
NO_CHARGES


@<TRIPOS>ATOM
   1 C1            -0.0164     1.3548     0.0095 C.ar    
   2 N2            -2.4437     5.3192    -0.8461 N.am    
   3 O3             0.0021    -0.0041     0.0020 O.3     
   4 C4             1.1747     2.0658     0.0019 C.ar    
   5 N5            -3.0427     6.8151     0.8967 N.2     
   6 O6            -5.2522     4.1460     1.0059 O.3     
   7 C7             1.1532     3.4473     0.0091 C.ar    
   8 C8            -0.0539     4.1209     0.0242 C.ar    
   9 C9            -1.2426     3.4144     0.0318 C.ar    
  10 C10           -1.2266     2.0333     0.0189 C.ar    
  11 C11           -2.5567     4.1520     0.0487 C.3     
  12 C12           -2.6631     6.5500    -0.3557 C.2     
  13 C13           -3.1979     5.9311     1.8177 C.2     
  14 C14           -2.9129     4.4720     1.5148 C.3     
  15 C15           -4.1907     3.7039     1.8544 C.3     
  16 C16           -4.5649     3.9604     3.3156 C.3     
  17 C17           -4.9137     5.4357     3.5174 C.3     
  18 C18           -3.6877     6.2994     3.1957 C.3     
  19 S19           -2.4389     7.8769    -1.4140 S.2     
  20 H20           -2.2091     5.1992    -1.7796 H       
  21 H21            0.0158    -0.4021     0.8832 H       
  22 H22            2.1179     1.5399    -0.0092 H       
  23 H23           -6.0953     3.7003     1.1661 H       
  24 H24            2.0803     4.0013     0.0032 H       
  25 H25           -0.0685     5.2008     0.0305 H       
  26 H26           -2.1553     1.4820     0.0203 H       
  27 H27           -3.3242     3.4886    -0.3499 H       
  28 H28           -2.1016     4.1301     2.1575 H       
  29 H29           -4.0247     2.6373     1.7033 H       
  30 H30           -5.4250     3.3459     3.5816 H       
  31 H31           -3.7230     3.6971     3.9559 H       
  32 H32           -5.7347     5.7089     2.8545 H       
  33 H33           -5.2124     5.6001     4.5527 H       
  34 H34           -2.9025     6.1100     3.9276 H       
  35 H35           -3.9647     7.3534     3.2177 H       
@<TRIPOS>BOND
   1    1    3 1
   2    1    4 ar
   3    1   10 ar
   4    2   11 1
   5    2   12 am
   6    2   20 1
   7    3   21 1
   8    4    7 ar
   9    4   22 1
  10    5   12 1
  11    5   13 2
  12    6   15 1
  13    6   23 1
  14    7    8 ar
  15    7   24 1
  16    8    9 ar
  17    8   25 1
  18    9   10 ar
  19    9   11 1
  20   10   26 1
  21   11   14 1
  22   11   27 1
  23   12   19 2
  24   13   14 1
  25   13   18 1
  26   14   15 1
  27   14   28 1
  28   15   16 1
  29   15   29 1
  30   16   17 1
  31   16   30 1
  32   16   31 1
  33   17   18 1
  34   17   32 1
  35   17   33 1
  36   18   34 1
  37   18   35 1

#	End of record

