#	Name: ASD08178052
#	Creating user name:	WinNT
#	Creation time:	15. 06. 2019 21:18

#	Modifying user name:	WinNT
#	Modification time:	15. 06. 2019 21:18

#	Program:	/corina/corina34_cracker 3.40 0067  02.08.2006

@<TRIPOS>MOLECULE
ASD08178052
  71   74    0    0    0
SMALL
NO_CHARGES


@<TRIPOS>ATOM
   1 C1            -0.0187     1.5258     0.0104 C.3     
   2 C2             5.6566    16.0433    10.8153 C.3     
   3 N3             1.4717     6.3726    -0.3298 N.2     
   4 N4             1.6308     7.6217    -0.4219 N.2     
   5 C5             2.5368     5.6332    -0.2515 C.2     
   6 S6             3.9153     6.6491    -0.3008 S.3     
   7 C7             2.8527     8.0512    -0.4297 C.2     
   8 N8             2.5550     4.2467    -0.1448 N.am    
   9 C9             1.3970     3.5578    -0.1160 C.2     
  10 O10            0.3390     4.1470    -0.1831 O.2     
  11 C11            1.4167     2.0553    -0.0004 C.3     
  12 C12            3.2883     9.4903    -0.5306 C.3     
  13 C13            3.4062    10.0872     0.8732 C.3     
  14 S14            3.9306    11.8195     0.7517 S.3     
  15 C15            4.0125    12.3437     2.4863 C.3     
  16 C16            4.4484    13.8086     2.5564 C.3     
  17 C17            4.5164    14.2441     3.9975 C.2     
  18 N18            5.5521    14.1653     4.7713 N.2     
  19 S19            3.2020    14.9598     4.9312 S.3     
  20 C20            4.2444    15.0574     6.2872 C.2     
  21 N21            5.4074    14.5852     5.9531 N.2     
  22 N22            3.9033    15.5628     7.5372 N.am    
  23 C23            4.8173    15.5852     8.5273 C.2     
  24 O24            5.9374    15.1647     8.3283 O.2     
  25 C25            4.4477    16.1329     9.8818 C.3     
  26 C26            5.3209    16.7117    12.1500 C.3     
  27 C27            6.5297    16.6221    13.0836 C.3     
  28 C28            6.8811    15.1525    13.3234 C.3     
  29 C29            7.2168    14.4840    11.9887 C.3     
  30 C30            6.0080    14.5736    11.0551 C.3     
  31 C31            0.0021    -0.0041     0.0020 C.3     
  32 C32           -1.4333    -0.5336     0.0129 C.3     
  33 C33           -2.1494    -0.0402     1.2717 C.3     
  34 C34           -2.1702     1.4896     1.2801 C.3     
  35 C35           -0.7348     2.0192     1.2692 C.3     
  36 H36           -0.5459     1.8868    -0.8726 H       
  37 H37            6.5066    16.5503    10.3587 H       
  38 H38            3.4011     3.7755    -0.0912 H       
  39 H39            1.9168     1.7687     0.9247 H       
  40 H40            1.9535     1.6326    -0.8497 H       
  41 H41            4.2556     9.5430    -1.0303 H       
  42 H42            2.5520    10.0534    -1.1042 H       
  43 H43            2.4389    10.0346     1.3728 H       
  44 H44            4.1425     9.5241     1.4467 H       
  45 H45            3.0300    12.2347     2.9456 H       
  46 H46            4.7336    11.7242     3.0195 H       
  47 H47            5.4309    13.9177     2.0971 H       
  48 H48            3.7273    14.4282     2.0232 H       
  49 H49            3.0075    15.8991     7.6963 H       
  50 H50            3.6245    15.5512    10.2965 H       
  51 H51            4.1424    17.1744     9.7816 H       
  52 H52            5.0705    17.7587    11.9792 H       
  53 H53            4.4708    16.2047    12.6066 H       
  54 H54            7.3798    17.1291    12.6270 H       
  55 H55            6.2906    17.0983    14.0344 H       
  56 H56            7.7423    15.0886    13.9884 H       
  57 H57            6.0311    14.6455    13.7800 H       
  58 H58            8.0669    14.9910    11.5321 H       
  59 H59            7.4672    13.4370    12.1595 H       
  60 H60            5.1579    14.0666    11.5117 H       
  61 H61            6.2471    14.0974    10.1043 H       
  62 H62            0.5123    -0.3556    -0.8948 H       
  63 H63            0.5293    -0.3651     0.8851 H       
  64 H64           -1.9605    -0.1726    -0.8702 H       
  65 H65           -1.4185    -1.6235     0.0069 H       
  66 H66           -3.1720    -0.4175     1.2794 H       
  67 H67           -1.6223    -0.4013     2.1547 H       
  68 H68           -2.6974     1.8507     0.3970 H       
  69 H69           -2.6804     1.8411     2.1769 H       
  70 H70           -0.2076     1.6581     2.1523 H       
  71 H71           -0.7496     3.1091     1.2752 H       
@<TRIPOS>BOND
   1    1   31 1
   2    1   11 1
   3    1   35 1
   4    1   36 1
   5    2   26 1
   6    2   25 1
   7    2   30 1
   8    2   37 1
   9    3    4 1
  10    3    5 2
  11    4    7 2
  12    5    6 1
  13    5    8 1
  14    6    7 1
  15    7   12 1
  16    8    9 am
  17    8   38 1
  18    9   10 2
  19    9   11 1
  20   11   39 1
  21   11   40 1
  22   12   13 1
  23   12   41 1
  24   12   42 1
  25   13   14 1
  26   13   43 1
  27   13   44 1
  28   14   15 1
  29   15   16 1
  30   15   45 1
  31   15   46 1
  32   16   17 1
  33   16   47 1
  34   16   48 1
  35   17   18 2
  36   17   19 1
  37   18   21 1
  38   19   20 1
  39   20   21 2
  40   20   22 1
  41   22   23 am
  42   22   49 1
  43   23   24 2
  44   23   25 1
  45   25   50 1
  46   25   51 1
  47   26   27 1
  48   26   52 1
  49   26   53 1
  50   27   28 1
  51   27   54 1
  52   27   55 1
  53   28   29 1
  54   28   56 1
  55   28   57 1
  56   29   30 1
  57   29   58 1
  58   29   59 1
  59   30   60 1
  60   30   61 1
  61   31   32 1
  62   31   62 1
  63   31   63 1
  64   32   33 1
  65   32   64 1
  66   32   65 1
  67   33   34 1
  68   33   66 1
  69   33   67 1
  70   34   35 1
  71   34   68 1
  72   34   69 1
  73   35   70 1
  74   35   71 1

#	End of record

