#	Name: ASD04570010
#	Creating user name:	WinNT
#	Creation time:	15. 06. 2019 20:49

#	Modifying user name:	WinNT
#	Modification time:	15. 06. 2019 20:49

#	Program:	/corina/corina34_cracker 3.40 0067  02.08.2006

@<TRIPOS>MOLECULE
ASD04570010
 280  286    0    0    0
SMALL
NO_CHARGES


@<TRIPOS>ATOM
   1 C1             8.3942    -0.9441    -5.5469 C.3     
   2 C2             9.3954    -0.2741    -4.6038 C.3     
   3 C3             9.1045     1.2027    -4.5292 C.2     
   4 N4             9.2770    -0.8647    -3.2640 N.3     
   5 O5             8.8259     1.7129    -3.4647 O.2     
   6 C6             8.7648    -2.4184    -5.7203 C.3     
   7 C7             7.6953    -3.1176    -6.5618 C.3     
   8 C8            10.1185    -2.5244    -6.4254 C.3     
   9 C9            17.6197   -12.5349    19.6729 C.3     
  10 C10           18.6653   -12.6788    18.5652 C.3     
  11 C11           19.0284   -14.1324    18.4030 C.2     
  12 N12           18.1162   -12.1692    17.3062 N.am    
  13 O13           18.8465   -14.6880    17.3404 O.2     
  14 C14           17.3471   -11.0734    19.9195 C.ar    
  15 C15           16.3500   -10.4274    19.2126 C.ar    
  16 C16           16.1000    -9.0868    19.4388 C.ar    
  17 C17           16.8466    -8.3923    20.3721 C.ar    
  18 C18           17.8431    -9.0385    21.0795 C.ar    
  19 C19           18.0902   -10.3801    20.8565 C.ar    
  20 C20           21.3124   -16.3394    18.6836 C.3     
  21 C21           19.9083   -16.2281    19.2811 C.3     
  22 C22           19.8797   -16.9062    20.6267 C.2     
  23 N23           19.5553   -14.8150    19.4388 N.am    
  24 O24           19.5927   -16.2715    21.6196 O.2     
  25 C25           21.3110   -15.7620    17.2668 C.3     
  26 C26           22.6940   -15.8717    16.6783 C.2     
  27 O27           23.5889   -16.3614    17.3257 O.2     
  28 O28           22.9316   -15.4253    15.4349 O.3     
  29 C29           15.1135    -5.2280    11.2717 C.3     
  30 C30           15.4146    -4.2614    12.4188 C.3     
  31 C31           16.4514    -4.8687    13.3284 C.2     
  32 N32           15.9220    -2.9998    11.8738 N.am    
  33 O33           17.5099    -4.3033    13.5041 O.2     
  34 S34           13.8655    -4.4970    10.1768 S.3     
  35 C35           17.0741    -6.0304    16.2317 C.3     
  36 C36           17.2102    -6.6305    14.8309 C.3     
  37 C37           17.0052    -8.1218    14.9012 C.2     
  38 N38           16.2024    -6.0401    13.9466 N.am    
  39 O39           16.1057    -8.6405    14.2743 O.2     
  40 N40           17.5848    -2.5077    17.5337 N.pl3   
  41 C41           17.5300    -1.7523    18.6811 C.2     
  42 N42           17.1965    -2.3081    19.8120 N.2     
  43 N43           17.8269    -0.4107    18.6358 N.pl3   
  44 C44           17.4045    -4.5374    16.1812 C.3     
  45 C45           17.2684    -3.9373    17.5820 C.3     
  46 C46           18.3366   -10.9980    14.5530 C.3     
  47 C47           17.6220   -10.3290    15.7289 C.3     
  48 C48           18.1868   -10.8532    17.0240 C.2     
  49 N49           17.8213    -8.8792    15.6606 N.am    
  50 O50           18.7048   -10.0909    17.8123 O.2     
  51 C51           17.6904   -10.5672    13.2616 C.ar    
  52 C52           18.1488    -9.4429    12.6007 C.ar    
  53 C53           17.5560    -9.0476    11.4161 C.ar    
  54 C54           16.5051    -9.7769    10.8921 C.ar    
  55 C55           16.0472   -10.9017    11.5525 C.ar    
  56 C56           16.6429   -11.2994    12.7349 C.ar    
  57 C57           11.5988     0.5117     9.0978 C.3     
  58 C58           12.8109     0.0136     8.3082 C.3     
  59 C59           13.7202    -0.7662     9.2227 C.2     
  60 N60           12.3599    -0.8509     7.2148 N.am    
  61 O61           13.6904    -1.9786     9.2179 O.2     
  62 S62           10.5944     1.5945     8.0445 S.3     
  63 C63           14.6292     1.3406    10.2341 C.3     
  64 C64           15.7235     1.6201    11.2858 C.3     
  65 C65           15.5823    -0.7483    10.9074 C.3     
  66 C66           15.0604    -2.0461    11.4680 C.2     
  67 N67           14.5666    -0.1162    10.0459 N.am    
  68 O68           13.8651    -2.2324    11.5541 O.2     
  69 C69           15.8261     0.2721    12.0472 C.3     
  70 C70            8.1613    -2.6638    -1.3114 C.3     
  71 C71            7.8509    -1.1660    -1.3460 C.3     
  72 C72            8.8472    -0.4266    -0.4905 C.2     
  73 N73            7.9375    -0.6799    -2.7295 N.3     
  74 O74            9.5592     0.4217    -0.9847 O.2     
  75 O75            9.5118    -2.8801    -1.7255 O.3     
  76 C76            9.2991     1.3267     2.1339 C.3     
  77 C77            9.9154     0.0106     1.6554 C.3     
  78 C78           10.2800    -0.8362     2.8475 C.2     
  79 N79            8.9469    -0.7082     0.8237 N.am    
  80 O80            9.7801    -1.9321     2.9885 O.2     
  81 C81            9.0476     2.2236     0.9493 C.ar    
  82 C82            7.8366     2.1657     0.2846 C.ar    
  83 C83            7.6036     2.9869    -0.8015 C.ar    
  84 C84            8.5859     3.8702    -1.2252 C.ar    
  85 C85            9.8002     3.9263    -0.5566 C.ar    
  86 C86           10.0262     3.1071     0.5325 C.ar    
  87 O87            8.3593     4.6787    -2.2938 O.3     
  88 C88           12.6397    -2.1634     4.5317 C.3     
  89 C89           11.5160    -1.1987     4.9158 C.3     
  90 C90           11.9800    -0.3094     6.0406 C.2     
  91 N91           11.1616    -0.3755     3.7569 N.am    
  92 O92           12.0115     0.8935     5.8890 O.2     
  93 N93           12.7635    -5.0543     2.0836 N.pl3   
  94 C94           13.6020    -6.0219     1.5829 C.2     
  95 N95           13.1669    -6.8602     0.6846 N.2     
  96 N96           14.8996    -6.1053     2.0296 N.pl3   
  97 C97           12.1289    -3.1474     3.4773 C.3     
  98 C98           13.2526    -4.1121     3.0931 C.3     
  99 C99           11.1947     9.7293    -9.1665 C.3     
 100 C100           9.6833     9.5504    -9.3226 C.3     
 101 C101           9.2169    10.2737   -10.5596 C.2     
 102 N102           9.3702     8.1243    -9.4435 N.am    
 103 O103           8.6762     9.6586   -11.4542 O.2     
 104 C104          11.6490     9.1019    -7.8471 C.3     
 105 C105          13.1744     9.1697    -7.7487 C.3     
 106 C106          11.0279     9.8680    -6.6775 C.3     
 107 C107           8.6863    13.7770   -11.5380 C.3     
 108 C108           8.9471    12.3074   -11.8744 C.3     
 109 C109          10.0091    12.2167   -12.9398 C.2     
 110 N110           9.4005    11.6042   -10.6718 N.am    
 111 O111          11.0385    11.6257   -12.7175 O.2     
 112 C112           7.5406    13.8737   -10.5638 C.2     
 113 C113           6.2499    14.0831   -10.8674 C.2     
 114 N114           5.5001    14.1100    -9.7231 N.pl3   
 115 C115           6.3107    13.9136    -8.6276 C.ar    
 116 C116           7.6233    13.7507    -9.1065 C.ar    
 117 C117           6.0719    13.8505    -7.2584 C.ar    
 118 C118           7.1198    13.6364    -6.3904 C.ar    
 119 C119           8.4144    13.4825    -6.8676 C.ar    
 120 C120           8.6694    13.5267    -8.2092 C.ar    
 121 C121          22.5369   -22.3293    24.5102 C.3     
 122 C122          22.0689   -22.0147    23.0879 C.3     
 123 C123          21.3195   -23.1982    22.5323 C.2     
 124 N124          21.1866   -20.8454    23.1115 N.am    
 125 O125          20.1673   -23.0774    22.1913 O.2     
 126 C126          23.3898   -21.1965    25.0205 C.2     
 127 N127          22.9713   -20.1388    25.7818 N.pl3   
 128 C128          24.0515   -19.3628    26.0157 C.2     
 129 N129          25.0880   -19.9024    25.4347 N.2     
 130 C130          24.7115   -21.0335    24.8199 C.2     
 131 C131           8.8710     3.3921    -5.5729 C.3     
 132 C132           8.9925     3.9981    -6.9473 C.2     
 133 N133           9.1538     1.9565    -5.6454 N.am    
 134 O134           9.2864     3.2995    -7.8942 O.2     
 135 C135          18.7162   -19.3226    22.3509 C.3     
 136 C136          20.1453   -18.8770    22.0347 C.3     
 137 C137          21.0528   -20.0798    22.0104 C.2     
 138 N138          20.1730   -18.2178    20.7266 N.am    
 139 O139          21.6627   -20.3590    20.9999 O.2     
 140 O140          18.3110   -20.3233    21.4147 O.3     
 141 C141           7.5705     5.7353    -9.2114 C.3     
 142 C142           8.8926     5.9053    -8.4604 C.3     
 143 C143           9.2146     7.3723    -8.3360 C.2     
 144 N144           8.7745     5.3163    -7.1243 N.am    
 145 O145           9.3337     7.8761    -7.2392 O.2     
 146 O146           6.5494     6.4891    -8.5548 O.3     
 147 H147           7.3917    -0.8686    -5.1256 H       
 148 H148           8.4193    -0.4467    -6.5164 H       
 149 H149          10.4070    -0.4265    -4.9799 H       
 150 H150           9.5300    -1.8414    -3.2757 H       
 151 H151           8.8265    -2.8950    -4.7420 H       
 152 H152           7.6337    -2.6409    -7.5401 H       
 153 H153           7.9593    -4.1679    -6.6853 H       
 154 H154           6.7309    -3.0420    -6.0594 H       
 155 H155          10.8805    -2.0263    -5.8259 H       
 156 H156          10.3826    -3.5747    -6.5490 H       
 157 H157          10.0569    -2.0477    -7.4037 H       
 158 H158          16.6976   -13.0302    19.3688 H       
 159 H159          17.9941   -12.9940    20.5878 H       
 160 H160          19.5560   -12.1092    18.8301 H       
 161 H161          17.7019   -12.7789    16.6757 H       
 162 H162          15.7667   -10.9701    18.4835 H       
 163 H163          15.3215    -8.5820    18.8860 H       
 164 H164          16.6517    -7.3447    20.5482 H       
 165 H165          18.4266    -8.4958    21.8085 H       
 166 H166          18.8662   -10.8859    21.4119 H       
 167 H167          22.0158   -15.7821    19.3024 H       
 168 H168          21.6103   -17.3873    18.6487 H       
 169 H169          19.1913   -16.7097    18.6163 H       
 170 H170          19.7008   -14.3707    20.2887 H       
 171 H171          20.6076   -16.3193    16.6480 H       
 172 H172          21.0130   -14.7141    17.3018 H       
 173 H173          23.8342   -15.5171    15.1005 H       
 174 H174          16.0264    -5.4172    10.7069 H       
 175 H175          14.7360    -6.1668    11.6772 H       
 176 H176          14.5018    -4.0722    12.9836 H       
 177 H177          16.8780    -2.8508    11.8050 H       
 178 H178          13.7026    -5.4400     9.2317 H       
 179 H179          16.0523    -6.1646    16.5867 H       
 180 H180          17.7634    -6.5324    16.9106 H       
 181 H181          18.2054    -6.4186    14.4400 H       
 182 H182          15.3558    -6.4923    13.8061 H       
 183 H183          17.8330    -2.0940    16.6922 H       
 184 H184          17.1578    -1.7752    20.6215 H       
 185 H185          18.0751     0.0029    17.7943 H       
 186 H186          17.7883     0.1222    19.4454 H       
 187 H187          18.4263    -4.4032    15.8262 H       
 188 H188          16.7152    -4.0354    15.5023 H       
 189 H189          17.9578    -4.4392    18.2609 H       
 190 H190          16.2466    -4.0714    17.9370 H       
 191 H191          19.3860   -10.7032    14.5503 H       
 192 H192          18.2637   -12.0810    14.6522 H       
 193 H193          16.5561   -10.5519    15.6807 H       
 194 H194          18.5407    -8.4644    16.1619 H       
 195 H195          18.9699    -8.8731    13.0101 H       
 196 H196          17.9137    -8.1689    10.9002 H       
 197 H197          16.0415    -9.4678     9.9670 H       
 198 H198          15.2260   -11.4713    11.1433 H       
 199 H199          16.2876   -12.1803    13.2489 H       
 200 H200          10.9995    -0.3402     9.4192 H       
 201 H201          11.9379     1.0677     9.9718 H       
 202 H202          13.3524     0.8659     7.8978 H       
 203 H203          12.3347    -1.8130     7.3360 H       
 204 H204           9.5822     1.9511     8.8552 H       
 205 H205          13.6682     1.7098    10.5920 H       
 206 H206          14.8875     1.8253     9.2925 H       
 207 H207          16.6698     1.8630    10.8025 H       
 208 H208          15.4162     2.4207    11.9586 H       
 209 H209          16.5012    -0.9202    10.3470 H       
 210 H210          16.8175     0.1432    12.4816 H       
 211 H211          15.0532     0.1956    12.8120 H       
 212 H212           8.0278    -3.0392    -0.2968 H       
 213 H213           7.4859    -3.1905    -1.9855 H       
 214 H214           6.8450    -0.9945    -0.9629 H       
 215 H215           7.6535     0.2863    -2.7917 H       
 216 H216           9.7785    -3.8096    -1.7277 H       
 217 H217           8.3566     1.1230     2.6420 H       
 218 H218           9.9846     1.8193     2.8236 H       
 219 H219          10.8113     0.2202     1.0710 H       
 220 H220           8.3775    -1.3867     1.2190 H       
 221 H221           7.0724     1.4777     0.6146 H       
 222 H222           6.6576     2.9410    -1.3206 H       
 223 H223          10.5665     4.6131    -0.8845 H       
 224 H224          10.9696     3.1535     1.0561 H       
 225 H225           7.9682     5.5329    -2.0647 H       
 226 H226          13.4797    -1.5996     4.1258 H       
 227 H227          12.9642    -2.7134     5.4150 H       
 228 H228          10.6436    -1.7670     5.2382 H       
 229 H229          11.5614     0.5010     3.6441 H       
 230 H230          11.8480    -4.9954     1.7684 H       
 231 H231          13.7585    -7.5429     0.3314 H       
 232 H232          15.2234    -5.4814     2.6980 H       
 233 H233          15.4912    -6.7880     1.6763 H       
 234 H234          11.2890    -3.7112     3.8832 H       
 235 H235          11.8044    -2.5974     2.5940 H       
 236 H236          13.5771    -4.6621     3.9765 H       
 237 H237          14.0926    -3.5483     2.6873 H       
 238 H238          11.7060     9.2410    -9.9961 H       
 239 H239          11.4366    10.7921    -9.1657 H       
 240 H240           9.1767     9.9607    -8.4490 H       
 241 H241           9.2750     7.7214   -10.3207 H       
 242 H242          11.3286     8.0607    -7.8106 H       
 243 H243          13.4948    10.2109    -7.7852 H       
 244 H244          13.4980     8.7227    -6.8087 H       
 245 H245          13.6169     8.6239    -8.5820 H       
 246 H246          11.3484    10.9092    -6.7140 H       
 247 H247           9.9412     9.8196    -6.7477 H       
 248 H248          11.3515     9.4210    -5.7375 H       
 249 H249           9.5806    14.2118   -11.0915 H       
 250 H250           8.4350    14.3193   -12.4495 H       
 251 H251           8.0274    11.8492   -12.2382 H       
 252 H252           9.8496    12.6803   -13.9021 H       
 253 H253           9.8329    12.0962    -9.9564 H       
 254 H254           5.8610    14.2118   -11.8667 H       
 255 H255           4.5405    14.2473    -9.6888 H       
 256 H256           5.0684    13.9694    -6.8774 H       
 257 H257           6.9325    13.5881    -5.3279 H       
 258 H258           9.2249    13.3156    -6.1735 H       
 259 H259           9.6788    13.4041    -8.5733 H       
 260 H260          21.6698   -22.4521    25.1592 H       
 261 H261          23.1204   -23.2499    24.5054 H       
 262 H262          22.9339   -21.8045    22.4589 H       
 263 H263          21.8128   -24.1545    22.4392 H       
 264 H264          20.6988   -20.6221    23.9197 H       
 265 H265          22.0676   -19.9769    26.0949 H       
 266 H266          24.0567   -18.4472    26.5884 H       
 267 H267          25.3549   -21.6959    24.2600 H       
 268 H268           9.5843     3.8695    -4.9010 H       
 269 H269           7.8594     3.5446    -5.1967 H       
 270 H270           9.3766     1.5484    -6.4967 H       
 271 H271          18.6785   -19.7327    23.3601 H       
 272 H272          18.0449   -18.4667    22.2812 H       
 273 H273          20.4863   -18.1799    22.8001 H       
 274 H274          20.4026   -18.7254    19.9325 H       
 275 H275          17.4129   -20.6529    21.5553 H       
 276 H276           7.6852     6.0931   -10.2346 H       
 277 H277           7.2928     4.6814    -9.2241 H       
 278 H278           9.6895     5.4037    -9.0095 H       
 279 H279           8.5395     5.8749    -6.3670 H       
 280 H280           5.6818     6.4277    -8.9775 H       
@<TRIPOS>BOND
   1    1    6 1
   2    1    2 1
   3    1  147 1
   4    1  148 1
   5    2    4 1
   6    2    3 1
   7    2  149 1
   8    3    5 2
   9    3  133 am
  10    4   73 1
  11    4  150 1
  12    6    7 1
  13    6    8 1
  14    6  151 1
  15    7  152 1
  16    7  153 1
  17    7  154 1
  18    8  155 1
  19    8  156 1
  20    8  157 1
  21    9   14 1
  22    9   10 1
  23    9  158 1
  24    9  159 1
  25   10   11 1
  26   10   12 1
  27   10  160 1
  28   11   13 2
  29   11   23 am
  30   12   48 am
  31   12  161 1
  32   14   15 ar
  33   14   19 ar
  34   15   16 ar
  35   15  162 1
  36   16   17 ar
  37   16  163 1
  38   17   18 ar
  39   17  164 1
  40   18   19 ar
  41   18  165 1
  42   19  166 1
  43   20   25 1
  44   20   21 1
  45   20  167 1
  46   20  168 1
  47   21   23 1
  48   21   22 1
  49   21  169 1
  50   22   24 2
  51   22  138 am
  52   23  170 1
  53   25   26 1
  54   25  171 1
  55   25  172 1
  56   26   27 2
  57   26   28 1
  58   28  173 1
  59   29   34 1
  60   29   30 1
  61   29  174 1
  62   29  175 1
  63   30   31 1
  64   30   32 1
  65   30  176 1
  66   31   33 2
  67   31   38 am
  68   32   66 am
  69   32  177 1
  70   34  178 1
  71   35   44 1
  72   35   36 1
  73   35  179 1
  74   35  180 1
  75   36   38 1
  76   36   37 1
  77   36  181 1
  78   37   39 2
  79   37   49 am
  80   38  182 1
  81   40   45 1
  82   40   41 1
  83   40  183 1
  84   41   42 2
  85   41   43 1
  86   42  184 1
  87   43  185 1
  88   43  186 1
  89   44   45 1
  90   44  187 1
  91   44  188 1
  92   45  189 1
  93   45  190 1
  94   46   51 1
  95   46   47 1
  96   46  191 1
  97   46  192 1
  98   47   48 1
  99   47   49 1
 100   47  193 1
 101   48   50 2
 102   49  194 1
 103   51   52 ar
 104   51   56 ar
 105   52   53 ar
 106   52  195 1
 107   53   54 ar
 108   53  196 1
 109   54   55 ar
 110   54  197 1
 111   55   56 ar
 112   55  198 1
 113   56  199 1
 114   57   62 1
 115   57   58 1
 116   57  200 1
 117   57  201 1
 118   58   59 1
 119   58   60 1
 120   58  202 1
 121   59   61 2
 122   59   67 am
 123   60   90 am
 124   60  203 1
 125   62  204 1
 126   63   67 1
 127   63   64 1
 128   63  205 1
 129   63  206 1
 130   64   69 1
 131   64  207 1
 132   64  208 1
 133   65   67 1
 134   65   66 1
 135   65   69 1
 136   65  209 1
 137   66   68 2
 138   69  210 1
 139   69  211 1
 140   70   75 1
 141   70   71 1
 142   70  212 1
 143   70  213 1
 144   71   73 1
 145   71   72 1
 146   71  214 1
 147   72   74 2
 148   72   79 am
 149   73  215 1
 150   75  216 1
 151   76   81 1
 152   76   77 1
 153   76  217 1
 154   76  218 1
 155   77   78 1
 156   77   79 1
 157   77  219 1
 158   78   80 2
 159   78   91 am
 160   79  220 1
 161   81   82 ar
 162   81   86 ar
 163   82   83 ar
 164   82  221 1
 165   83   84 ar
 166   83  222 1
 167   84   85 ar
 168   84   87 1
 169   85   86 ar
 170   85  223 1
 171   86  224 1
 172   87  225 1
 173   88   97 1
 174   88   89 1
 175   88  226 1
 176   88  227 1
 177   89   91 1
 178   89   90 1
 179   89  228 1
 180   90   92 2
 181   91  229 1
 182   93   98 1
 183   93   94 1
 184   93  230 1
 185   94   95 2
 186   94   96 1
 187   95  231 1
 188   96  232 1
 189   96  233 1
 190   97   98 1
 191   97  234 1
 192   97  235 1
 193   98  236 1
 194   98  237 1
 195   99  104 1
 196   99  100 1
 197   99  238 1
 198   99  239 1
 199  100  102 1
 200  100  101 1
 201  100  240 1
 202  101  103 2
 203  101  110 am
 204  102  143 am
 205  102  241 1
 206  104  105 1
 207  104  106 1
 208  104  242 1
 209  105  243 1
 210  105  244 1
 211  105  245 1
 212  106  246 1
 213  106  247 1
 214  106  248 1
 215  107  112 1
 216  107  108 1
 217  107  249 1
 218  107  250 1
 219  108  109 1
 220  108  110 1
 221  108  251 1
 222  109  111 2
 223  109  252 1
 224  110  253 1
 225  112  113 2
 226  112  116 1
 227  113  114 1
 228  113  254 1
 229  114  115 1
 230  114  255 1
 231  115  116 ar
 232  115  117 ar
 233  116  120 ar
 234  117  118 ar
 235  117  256 1
 236  118  119 ar
 237  118  257 1
 238  119  120 ar
 239  119  258 1
 240  120  259 1
 241  121  126 1
 242  121  122 1
 243  121  260 1
 244  121  261 1
 245  122  123 1
 246  122  124 1
 247  122  262 1
 248  123  125 2
 249  123  263 1
 250  124  137 am
 251  124  264 1
 252  126  127 1
 253  126  130 2
 254  127  128 1
 255  127  265 1
 256  128  129 2
 257  128  266 1
 258  129  130 1
 259  130  267 1
 260  131  132 1
 261  131  133 1
 262  131  268 1
 263  131  269 1
 264  132  134 2
 265  132  144 am
 266  133  270 1
 267  135  140 1
 268  135  136 1
 269  135  271 1
 270  135  272 1
 271  136  138 1
 272  136  137 1
 273  136  273 1
 274  137  139 2
 275  138  274 1
 276  140  275 1
 277  141  146 1
 278  141  142 1
 279  141  276 1
 280  141  277 1
 281  142  144 1
 282  142  143 1
 283  142  278 1
 284  143  145 2
 285  144  279 1
 286  146  280 1

#	End of record

