#	Name: ASD02039205
#	Creating user name:	WinNT
#	Creation time:	15. 06. 2019 20:17

#	Modifying user name:	WinNT
#	Modification time:	15. 06. 2019 20:17

#	Program:	/corina/corina34_cracker 3.40 0067  02.08.2006

@<TRIPOS>MOLECULE
ASD02039205
  39   42    0    0    0
SMALL
NO_CHARGES


@<TRIPOS>ATOM
   1 N1             0.0021     1.2626     0.3692 N.2     
   2 C2             0.0063    -0.0135     0.0889 C.2     
   3 N3             1.2922    -0.3754    -0.1077 N.2     
   4 C4             1.9960     0.7159     0.0676 C.2     
   5 O5             1.1352     1.6953     0.3609 O.3     
   6 C6             3.4938     0.8426    -0.0406 C.3     
   7 N7            -1.1049    -0.8433     0.0088 N.pl3   
   8 C8            -2.3914    -0.3043     0.1299 C.ar    
   9 C9            -2.6368     1.0037    -0.2675 C.ar    
  10 C10           -3.9074     1.5349    -0.1474 C.ar    
  11 C11           -4.9377     0.7600     0.3707 C.ar    
  12 C12           -4.6919    -0.5452     0.7670 C.ar    
  13 C13           -3.4234    -1.0788     0.6420 C.ar    
  14 O14           -6.1881     1.2827     0.4894 O.3     
  15 C15            3.8675     1.1878    -1.4591 C.ar    
  16 C16            3.9585     2.5142    -1.8441 C.ar    
  17 C17            4.3001     2.8387    -3.1425 C.ar    
  18 C18            4.5525     1.8318    -4.0611 C.ar    
  19 C19            4.4616     0.4950    -3.6740 C.ar    
  20 C20            4.1232     0.1792    -2.3674 C.ar    
  21 F21           -4.1471     2.8072    -0.5333 F       
  22 C22           -7.1991     0.4297     1.0301 C.3     
  23 F23           -7.3396    -0.7003     0.2173 F       
  24 F24           -6.8333     0.0331     2.3209 F       
  25 N25            4.9105     1.8329    -5.4089 N.am    
  26 C26            5.0254     0.5478    -5.7986 C.2     
  27 O27            4.7569    -0.2597    -4.7607 O.3     
  28 O28            5.3254     0.1774    -6.9173 O.2     
  29 H29            3.8411     1.6299     0.6285 H       
  30 H30            3.9595    -0.1027     0.2381 H       
  31 H31           -0.9895    -1.7962    -0.1311 H       
  32 H32           -1.8354     1.6056    -0.6698 H       
  33 H33           -5.4932    -1.1468     1.1700 H       
  34 H34           -3.2328    -2.0960     0.9511 H       
  35 H35            3.7615     3.2977    -1.1273 H       
  36 H36            4.3699     3.8741    -3.4414 H       
  37 H37            4.0513    -0.8543    -2.0622 H       
  38 H38           -8.1458     0.9685     1.0701 H       
  39 H39            5.0507     2.6156    -5.9646 H       
@<TRIPOS>BOND
   1    1    2 2
   2    1    5 1
   3    2    3 1
   4    2    7 1
   5    3    4 2
   6    4    5 1
   7    4    6 1
   8    6   15 1
   9    6   29 1
  10    6   30 1
  11    7    8 1
  12    7   31 1
  13    8    9 ar
  14    8   13 ar
  15    9   10 ar
  16    9   32 1
  17   10   11 ar
  18   10   21 1
  19   11   12 ar
  20   11   14 1
  21   12   13 ar
  22   12   33 1
  23   13   34 1
  24   14   22 1
  25   15   16 ar
  26   15   20 ar
  27   16   17 ar
  28   16   35 1
  29   17   18 ar
  30   17   36 1
  31   18   19 ar
  32   18   25 1
  33   19   20 ar
  34   19   27 1
  35   20   37 1
  36   22   23 1
  37   22   24 1
  38   22   38 1
  39   25   26 am
  40   25   39 1
  41   26   27 1
  42   26   28 2

#	End of record

