#	Name: ASD01911174
#	Creating user name:	WinNT
#	Creation time:	15. 06. 2019 19:57

#	Modifying user name:	WinNT
#	Modification time:	15. 06. 2019 19:57

#	Program:	/corina/corina34_cracker 3.40 0067  02.08.2006

@<TRIPOS>MOLECULE
ASD01911174
  42   45    0    0    0
SMALL
NO_CHARGES


@<TRIPOS>ATOM
   1 C1            -0.0129     1.3863     0.2518 C.ar    
   2 C2            -0.0181     0.0088     0.1376 C.ar    
   3 C3             1.1694    -0.6772    -0.0277 C.ar    
   4 C4             2.3708     0.0178    -0.0797 C.ar    
   5 C5             2.3750     1.4018     0.0347 C.ar    
   6 C6             1.1832     2.0836     0.2005 C.ar    
   7 C7             1.1615    -2.1791    -0.1510 C.3     
   8 N8             3.5740    -0.6748    -0.2465 N.am    
   9 C9             4.7367    -0.1059     0.1289 C.2     
  10 C10            6.0205    -0.7886    -0.1538 C.ar    
  11 O11            4.7318     0.9671     0.6994 O.2     
  12 C12            7.2188    -0.1955     0.2367 C.ar    
  13 C13            8.4121    -0.8466    -0.0344 C.ar    
  14 C14            8.3652    -2.0685    -0.6868 C.ar    
  15 C15            7.1367    -2.5999    -1.0464 C.ar    
  16 N16            6.0192    -1.9632    -0.7724 N.ar    
  17 N17            1.4593    -2.7777     1.1525 N.am    
  18 C18            0.5465    -2.9958     2.1163 C.2     
  19 C19            1.2246    -3.6111     3.2767 C.ar    
  20 C20            2.5810    -3.7294     2.9126 C.ar    
  21 C21            2.6804    -3.1869     1.5412 C.2     
  22 C22            0.8057    -4.0448     4.5243 C.ar    
  23 C23            1.7247    -4.5923     5.4058 C.ar    
  24 C24            3.0550    -4.7084     5.0486 C.ar    
  25 C25            3.4884    -4.2788     3.8041 C.ar    
  26 O26           -0.6366    -2.7309     2.0452 O.2     
  27 O27            3.6958    -3.1161     0.8787 O.2     
  28 F28            1.1852     3.4300     0.3115 F       
  29 H29           -0.9432     1.9204     0.3767 H       
  30 H30           -0.9521    -0.5320     0.1779 H       
  31 H31            3.3076     1.9450    -0.0058 H       
  32 H32            0.1792    -2.5109    -0.4873 H       
  33 H33            1.9166    -2.4883    -0.8738 H       
  34 H34            3.5718    -1.5648    -0.6324 H       
  35 H35            7.2181     0.7584     0.7433 H       
  36 H36            9.3570    -0.4115     0.2559 H       
  37 H37            9.2770    -2.6012    -0.9130 H       
  38 H38            7.0964    -3.5518    -1.5549 H       
  39 H39           -0.2324    -3.9563     4.8089 H       
  40 H40            1.3991    -4.9303     6.3785 H       
  41 H41            3.7615    -5.1367     5.7441 H       
  42 H42            4.5291    -4.3717     3.5305 H       
@<TRIPOS>BOND
   1    1    2 ar
   2    1    6 ar
   3    1   29 1
   4    2    3 ar
   5    2   30 1
   6    3    7 1
   7    3    4 ar
   8    4    5 ar
   9    4    8 1
  10    5    6 ar
  11    5   31 1
  12    6   28 1
  13    7   17 1
  14    7   32 1
  15    7   33 1
  16    8    9 am
  17    8   34 1
  18    9   10 1
  19    9   11 2
  20   10   12 ar
  21   10   16 ar
  22   12   13 ar
  23   12   35 1
  24   13   14 ar
  25   13   36 1
  26   14   15 ar
  27   14   37 1
  28   15   16 ar
  29   15   38 1
  30   17   18 am
  31   17   21 am
  32   18   19 1
  33   18   26 2
  34   19   20 ar
  35   19   22 ar
  36   20   21 1
  37   20   25 ar
  38   21   27 2
  39   22   23 ar
  40   22   39 1
  41   23   24 ar
  42   23   40 1
  43   24   25 ar
  44   24   41 1
  45   25   42 1

#	End of record

