#	Name: ASD03090655
#	Creating user name:	WinNT
#	Creation time:	15. 06. 2019 20:29

#	Modifying user name:	WinNT
#	Modification time:	15. 06. 2019 20:29

#	Program:	/corina/corina34_cracker 3.40 0067  02.08.2006

@<TRIPOS>MOLECULE
ASD03090655
  38   39    0    0    0
SMALL
NO_CHARGES


@<TRIPOS>ATOM
   1 N1            -0.1823     1.5471     0.2407 N.am    
   2 C2             0.2372     0.2848     0.4581 C.2     
   3 O3             1.4057     0.0683     0.7156 O.2     
   4 N4            -0.6385    -0.7374     0.3900 N.am    
   5 C5            -0.1854    -2.0560     0.5094 C.ar    
   6 C6            -0.9637    -3.0029     1.1625 C.ar    
   7 C7            -0.5140    -4.3034     1.2782 C.ar    
   8 C8             0.7101    -4.6634     0.7445 C.ar    
   9 C9             1.4875    -3.7230     0.0941 C.ar    
  10 C10            1.0406    -2.4218    -0.0299 C.ar    
  11 C11           -1.3576    -5.3314     1.9872 C.3     
  12 F12           -2.2062    -5.9541     1.0656 F       
  13 F13           -0.5268    -6.2896     2.5776 F       
  14 F14           -2.1230    -4.7046     2.9764 F       
  15 C15            0.7016     2.6202     0.4205 C.ar    
  16 C16            0.5266     3.7924    -0.3032 C.ar    
  17 C17            1.3967     4.8493    -0.1265 C.ar    
  18 C18            2.4476     4.7404     0.7761 C.ar    
  19 C19            2.6220     3.5677     1.5002 C.ar    
  20 C20            1.7483     2.5128     1.3263 C.ar    
  21 S21            3.5589     6.0889     1.0017 S.3     
  22 C22            4.7161     5.4599     2.2490 C.3     
  23 C23           -0.6131     3.9104    -1.2821 C.3     
  24 H24           -1.0946     1.7127    -0.0440 H       
  25 H25           -1.5829    -0.5592     0.2584 H       
  26 H26           -1.9195    -2.7224     1.5798 H       
  27 H27            1.0596    -5.6811     0.8363 H       
  28 H28            2.4430    -4.0072    -0.3213 H       
  29 H29            1.6461    -1.6889    -0.5423 H       
  30 H30            1.2609     5.7606    -0.6900 H       
  31 H31            3.4386     3.4826     2.2018 H       
  32 H32            1.8814     1.6026     1.8922 H       
  33 H33            5.2122     4.5676     1.8672 H       
  34 H34            5.4617     6.2234     2.4708 H       
  35 H35            4.1696     5.2107     3.1587 H       
  36 H36           -1.4900     4.3094    -0.7723 H       
  37 H37           -0.3278     4.5808    -2.0929 H       
  38 H38           -0.8458     2.9264    -1.6891 H       
@<TRIPOS>BOND
   1    1    2 am
   2    1   15 1
   3    1   24 1
   4    2    3 2
   5    2    4 am
   6    4    5 1
   7    4   25 1
   8    5    6 ar
   9    5   10 ar
  10    6    7 ar
  11    6   26 1
  12    7    8 ar
  13    7   11 1
  14    8    9 ar
  15    8   27 1
  16    9   10 ar
  17    9   28 1
  18   10   29 1
  19   11   12 1
  20   11   13 1
  21   11   14 1
  22   15   16 ar
  23   15   20 ar
  24   16   17 ar
  25   16   23 1
  26   17   18 ar
  27   17   30 1
  28   18   19 ar
  29   18   21 1
  30   19   20 ar
  31   19   31 1
  32   20   32 1
  33   21   22 1
  34   22   33 1
  35   22   34 1
  36   22   35 1
  37   23   36 1
  38   23   37 1
  39   23   38 1

#	End of record

