#	Name: ASD05430673
#	Creating user name:	WinNT
#	Creation time:	15. 06. 2019 21:00

#	Modifying user name:	WinNT
#	Modification time:	15. 06. 2019 21:00

#	Program:	/corina/corina34_cracker 3.40 0067  02.08.2006

@<TRIPOS>MOLECULE
ASD05430673
  25   25    0    0    0
SMALL
NO_CHARGES


@<TRIPOS>ATOM
   1 C1            -0.0167     1.3784     0.0096 C.ar    
   2 C2             0.0021    -0.0041     0.0020 C.ar    
   3 C3            -1.1841    -0.7121     0.0091 C.ar    
   4 C4            -2.4107     1.3522     0.0439 C.ar    
   5 C5            -1.2219     2.0557     0.0305 C.ar    
   6 C6             1.2788     2.1484     0.0014 C.3     
   7 C7            -2.3948    -0.0349     0.0243 C.ar    
   8 C8             1.3368     3.0356    -1.2437 C.3     
   9 C9             1.3607     3.0222     1.2546 C.3     
  10 O10           -3.5630    -0.7292     0.0313 O.3     
  11 C11           -4.7711     0.0339     0.0469 C.3     
  12 H12            0.9448    -0.5308    -0.0098 H       
  13 H13           -1.1689    -1.7920     0.0024 H       
  14 H14           -3.3519     1.8817     0.0602 H       
  15 H15           -1.2338     3.1355     0.0461 H       
  16 H16            2.1161     1.4506    -0.0104 H       
  17 H17            1.2785     2.4131    -2.1365 H       
  18 H18            0.4995     3.7334    -1.2320 H       
  19 H19            2.2738     3.5925    -1.2497 H       
  20 H20            1.3193     2.3901     2.1416 H       
  21 H21            2.2977     3.5791     1.2487 H       
  22 H22            0.5234     3.7200     1.2664 H       
  23 H23           -4.7955     0.6573     0.9407 H       
  24 H24           -4.8122     0.6674    -0.8391 H       
  25 H25           -5.6271    -0.6410     0.0511 H       
@<TRIPOS>BOND
   1    1    2 ar
   2    1    6 1
   3    1    5 ar
   4    2    3 ar
   5    2   12 1
   6    3    7 ar
   7    3   13 1
   8    4    5 ar
   9    4    7 ar
  10    4   14 1
  11    5   15 1
  12    6    8 1
  13    6    9 1
  14    6   16 1
  15    7   10 1
  16    8   17 1
  17    8   18 1
  18    8   19 1
  19    9   20 1
  20    9   21 1
  21    9   22 1
  22   10   11 1
  23   11   23 1
  24   11   24 1
  25   11   25 1

#	End of record

