#	Name: ASD01918400
#	Creating user name:	WinNT
#	Creation time:	15. 06. 2019 20:11

#	Modifying user name:	WinNT
#	Modification time:	15. 06. 2019 20:11

#	Program:	/corina/corina34_cracker 3.40 0067  02.08.2006

@<TRIPOS>MOLECULE
ASD01918400
  54   58    0    0    0
SMALL
NO_CHARGES


@<TRIPOS>ATOM
   1 C1             0.0995     1.6486    -0.3448 C.3     
   2 C2             0.1412     0.1455    -0.2447 C.2     
   3 N3             0.0655    -0.6850    -1.2489 N.2     
   4 C4             0.1364    -1.9335    -0.7738 C.2     
   5 C5             0.0842    -3.2309    -1.5439 C.3     
   6 N6             0.4655    -4.3085    -0.6131 N.am    
   7 C7            -0.1099    -4.2981     0.7402 C.3     
   8 C8             0.3788    -3.0484     1.4837 C.3     
   9 C9             0.2622    -1.8597     0.5652 C.2     
  10 O10            0.2679    -0.5584     0.8910 O.3     
  11 C11            1.3197    -5.2793    -0.9930 C.2     
  12 O12            1.6231    -6.1587    -0.2148 O.2     
  13 C13            1.8979    -5.2720    -2.3846 C.3     
  14 N14            2.7902    -6.4223    -2.5487 N.pl3   
  15 N15            4.1607    -6.4732    -2.2470 N.2     
  16 C16            4.5729    -7.6872    -2.5431 C.2     
  17 N17            3.5390    -8.3947    -3.0114 N.2     
  18 C18            2.4554    -7.6476    -3.0155 C.2     
  19 C19            1.1080    -8.0720    -3.4565 C.ar    
  20 C20            0.9606    -9.1826    -4.2876 C.ar    
  21 C21           -0.2984    -9.5736    -4.6949 C.ar    
  22 C22           -1.4131    -8.8667    -4.2808 C.ar    
  23 C23           -1.2735    -7.7644    -3.4565 C.ar    
  24 C24           -0.0204    -7.3666    -3.0380 C.ar    
  25 C25            5.9602    -8.1896    -2.3839 C.ar    
  26 C26            6.9525    -7.3528    -1.8781 C.ar    
  27 C27            8.2413    -7.8240    -1.7319 C.ar    
  28 C28            8.5489    -9.1271    -2.0871 C.ar    
  29 F29            9.8117    -9.5846    -1.9419 F       
  30 C30            7.5649    -9.9629    -2.5906 C.ar    
  31 C31            7.9054   -11.3797    -2.9750 C.3     
  32 C32            6.2727    -9.5016    -2.7347 C.ar    
  33 H33            1.1120     2.0326    -0.4696 H       
  34 H34           -0.5075     1.9390    -1.2023 H       
  35 H35           -0.3360     2.0614     0.5652 H       
  36 H36           -0.9264    -3.4016    -1.9150 H       
  37 H37            0.7854    -3.1958    -2.3777 H       
  38 H38           -1.1977    -4.2804     0.6736 H       
  39 H39            0.2089    -5.1905     1.2787 H       
  40 H40           -0.2352    -2.8870     2.3697 H       
  41 H41            1.4198    -3.1821     1.7778 H       
  42 H42            1.0902    -5.3319    -3.1140 H       
  43 H43            2.4600    -4.3511    -2.5397 H       
  44 H44            1.8302    -9.7351    -4.6118 H       
  45 H45           -0.4138   -10.4330    -5.3387 H       
  46 H46           -2.3964    -9.1764    -4.6026 H       
  47 H47           -2.1476    -7.2165    -3.1369 H       
  48 H48            0.0870    -6.5084    -2.3912 H       
  49 H49            6.7136    -6.3366    -1.6013 H       
  50 H50            9.0112    -7.1758    -1.3402 H       
  51 H51            7.7647   -12.0334    -2.1142 H       
  52 H52            7.2536   -11.7026    -3.7868 H       
  53 H53            8.9440   -11.4279    -3.3019 H       
  54 H54            5.5054   -10.1551    -3.1227 H       
@<TRIPOS>BOND
   1    1    2 1
   2    1   33 1
   3    1   34 1
   4    1   35 1
   5    2   10 1
   6    2    3 2
   7    3    4 1
   8    4    9 2
   9    4    5 1
  10    5    6 1
  11    5   36 1
  12    5   37 1
  13    6    7 1
  14    6   11 am
  15    7    8 1
  16    7   38 1
  17    7   39 1
  18    8    9 1
  19    8   40 1
  20    8   41 1
  21    9   10 1
  22   11   12 2
  23   11   13 1
  24   13   14 1
  25   13   42 1
  26   13   43 1
  27   14   18 1
  28   14   15 1
  29   15   16 2
  30   16   17 1
  31   16   25 1
  32   17   18 2
  33   18   19 1
  34   19   24 ar
  35   19   20 ar
  36   20   21 ar
  37   20   44 1
  38   21   22 ar
  39   21   45 1
  40   22   23 ar
  41   22   46 1
  42   23   24 ar
  43   23   47 1
  44   24   48 1
  45   25   32 ar
  46   25   26 ar
  47   26   27 ar
  48   26   49 1
  49   27   28 ar
  50   27   50 1
  51   28   29 1
  52   28   30 ar
  53   30   31 1
  54   30   32 ar
  55   31   51 1
  56   31   52 1
  57   31   53 1
  58   32   54 1

#	End of record

