#	Name: ASD00071044
#	Creating user name:	WinNT
#	Creation time:	15. 06. 2019 18:30

#	Modifying user name:	WinNT
#	Modification time:	15. 06. 2019 18:30

#	Program:	/corina/corina34_cracker 3.40 0067  02.08.2006

@<TRIPOS>MOLECULE
ASD00071044
  39   41    0    0    0
SMALL
NO_CHARGES


@<TRIPOS>ATOM
   1 N1             1.8375     1.2393    -1.2064 N.ar    
   2 C2             1.6403    -0.0631    -1.1915 C.ar    
   3 C3             1.3727    -0.7539     0.0006 C.ar    
   4 C4             1.3121    -0.0745     1.1803 C.ar    
   5 C5             1.5240     1.3173     1.1559 C.ar    
   6 C6             1.4815     2.1010     2.3201 C.ar    
   7 C7             1.6978     3.4432     2.2136 C.ar    
   8 N8             1.9447     4.0184     1.0461 N.ar    
   9 C9             1.9987     3.3471    -0.0803 C.ar    
  10 C10            1.7901     1.9576    -0.0807 C.ar    
  11 N11            1.6981    -0.7691    -2.3835 N.pl3   
  12 C12            1.1523    -2.2445    -0.0241 C.3     
  13 C13            1.0205    -2.7562     1.3872 C.ar    
  14 C14           -0.2316    -2.8639     1.9726 C.ar    
  15 C15           -0.3503    -3.3354     3.2724 C.ar    
  16 C16            0.7781    -3.6973     3.9830 C.ar    
  17 C17            2.0271    -3.5909     3.4018 C.ar    
  18 C18            2.1506    -3.1253     2.1003 C.ar    
  19 O19            3.3789    -3.0261     1.5272 O.3     
  20 C20            4.4989    -3.4241     2.3204 C.3     
  21 O21           -1.3417    -2.5077     1.2744 O.3     
  22 C22           -2.5986    -2.6448     1.9401 C.3     
  23 H23            1.1070    -0.5889     2.1075 H       
  24 H24            1.2813     1.6499     3.2808 H       
  25 H25            1.6665     4.0532     3.1042 H       
  26 H26            2.2032     3.8627    -1.0069 H       
  27 H27            1.8000    -0.2950    -3.2236 H       
  28 H28            1.6367    -1.7372    -2.3773 H       
  29 H29            0.2406    -2.4678    -0.5782 H       
  30 H30            1.9999    -2.7291    -0.5086 H       
  31 H31           -1.3255    -3.4192     3.7290 H       
  32 H32            0.6836    -4.0637     4.9946 H       
  33 H33            2.9076    -3.8744     3.9593 H       
  34 H34            4.5445    -2.8090     3.2192 H       
  35 H35            4.3909    -4.4715     2.6020 H       
  36 H36            5.4157    -3.2952     1.7451 H       
  37 H37           -2.7502    -3.6876     2.2191 H       
  38 H38           -2.6047    -2.0244     2.8363 H       
  39 H39           -3.3998    -2.3271     1.2728 H       
@<TRIPOS>BOND
   1    1    2 ar
   2    1   10 ar
   3    2    3 ar
   4    2   11 1
   5    3    4 ar
   6    3   12 1
   7    4    5 ar
   8    4   23 1
   9    5    6 ar
  10    5   10 ar
  11    6    7 ar
  12    6   24 1
  13    7    8 ar
  14    7   25 1
  15    8    9 ar
  16    9   10 ar
  17    9   26 1
  18   11   27 1
  19   11   28 1
  20   12   13 1
  21   12   29 1
  22   12   30 1
  23   13   14 ar
  24   13   18 ar
  25   14   15 ar
  26   14   21 1
  27   15   16 ar
  28   15   31 1
  29   16   17 ar
  30   16   32 1
  31   17   18 ar
  32   17   33 1
  33   18   19 1
  34   19   20 1
  35   20   34 1
  36   20   35 1
  37   20   36 1
  38   21   22 1
  39   22   37 1
  40   22   38 1
  41   22   39 1

#	End of record

