#	Name: ASD05723012
#	Creating user name:	WinNT
#	Creation time:	15. 06. 2019 21:02

#	Modifying user name:	WinNT
#	Modification time:	15. 06. 2019 21:02

#	Program:	/corina/corina34_cracker 3.40 0067  02.08.2006

@<TRIPOS>MOLECULE
ASD05723012
  65   69    0    0    0
SMALL
NO_CHARGES


@<TRIPOS>ATOM
   1 C1             0.9719     1.1709     0.7336 C.3     
   2 O2             0.4685    -0.1337     0.3426 O.3     
   3 C3             1.0719    -0.7342    -0.7006 C.2     
   4 O4             1.9939    -0.1832    -1.2686 O.2     
   5 N5             0.6531    -1.9465    -1.1148 N.am    
   6 C6             1.2022    -2.5200    -2.2643 C.ar    
   7 C7             1.3822    -3.8968    -2.3347 C.ar    
   8 C8             1.9240    -4.4649    -3.4673 C.ar    
   9 C9             2.2915    -3.6574    -4.5438 C.ar    
  10 C10            2.1094    -2.2763    -4.4707 C.ar    
  11 C11            1.5623    -1.7136    -3.3380 C.ar    
  12 C12            2.8746    -4.2655    -5.7624 C.ar    
  13 N13            3.0367    -5.5783    -5.8048 N.ar    
  14 C14            3.5565    -6.1628    -6.8812 C.ar    
  15 C15            3.9326    -5.3614    -7.9776 C.ar    
  16 C16            4.4460    -6.2280    -8.9658 C.2     
  17 N17            4.3892    -7.4489    -8.5149 N.2     
  18 N18            3.8435    -7.4509    -7.2251 N.pl3   
  19 C19            3.6200    -8.6330    -6.3891 C.3     
  20 C20            2.6641    -9.5902    -7.1048 C.3     
  21 C21            2.4055   -10.8087    -6.2130 C.3     
  22 N22            3.6956   -11.4076    -5.8448 N.am    
  23 C23            4.7219   -10.5531    -5.2322 C.3     
  24 C24            4.9546    -9.3375    -6.1349 C.3     
  25 C25            3.9330   -12.7160    -6.0644 C.2     
  26 O26            3.0758   -13.4122    -6.5715 O.2     
  27 O27            5.1198   -13.2516    -5.7220 O.3     
  28 C28            5.3056   -14.6670    -5.9878 C.3     
  29 C29            3.7407    -3.9676    -7.8869 C.ar    
  30 N30            3.2111    -3.4726    -6.7761 N.ar    
  31 N31            4.0922    -3.1368    -8.9328 N.3     
  32 C32            3.8011    -1.7322    -8.6107 C.3     
  33 C33            4.2597    -0.8429    -9.7694 C.3     
  34 O34            3.6150    -1.2671   -10.9735 O.3     
  35 C35            3.8774    -2.6302   -11.3176 C.3     
  36 C36            3.4149    -3.5376   -10.1746 C.3     
  37 H37            2.0224     1.0864     1.0119 H       
  38 H38            0.8718     1.8642    -0.1014 H       
  39 H39            0.3994     1.5413     1.5840 H       
  40 H40           -0.0294    -2.4208    -0.6147 H       
  41 H41            1.0975    -4.5215    -1.5010 H       
  42 H42            2.0643    -5.5344    -3.5212 H       
  43 H43            2.3934    -1.6489    -5.3027 H       
  44 H44            1.4171    -0.6449    -3.2826 H       
  45 H45            4.8223    -5.9294    -9.9331 H       
  46 H46            3.1837    -8.3279    -5.4380 H       
  47 H47            1.7220    -9.0804    -7.3063 H       
  48 H48            3.1107    -9.9153    -8.0444 H       
  49 H49            1.8771   -10.4967    -5.3122 H       
  50 H50            1.8057   -11.5387    -6.7567 H       
  51 H51            4.3824   -10.2203    -4.2514 H       
  52 H52            5.6506   -11.1144    -5.1287 H       
  53 H53            5.3796    -9.6650    -7.0837 H       
  54 H54            5.6427    -8.6478    -5.6462 H       
  55 H55            4.5568   -15.2405    -5.4414 H       
  56 H56            5.1975   -14.8533    -7.0563 H       
  57 H57            6.3018   -14.9696    -5.6651 H       
  58 H58            2.7288    -1.6082    -8.4591 H       
  59 H59            4.3328    -1.4494    -7.7022 H       
  60 H60            3.9943     0.1934    -9.5601 H       
  61 H61            5.3403    -0.9260    -9.8864 H       
  62 H62            3.3355    -2.8866   -12.2279 H       
  63 H63            4.9468    -2.7653   -11.4796 H       
  64 H64            3.6647    -4.5727   -10.4077 H       
  65 H65            2.3364    -3.4425   -10.0480 H       
@<TRIPOS>BOND
   1    1    2 1
   2    1   37 1
   3    1   38 1
   4    1   39 1
   5    2    3 1
   6    3    4 2
   7    3    5 am
   8    5    6 1
   9    5   40 1
  10    6    7 ar
  11    6   11 ar
  12    7    8 ar
  13    7   41 1
  14    8    9 ar
  15    8   42 1
  16    9   10 ar
  17    9   12 1
  18   10   11 ar
  19   10   43 1
  20   11   44 1
  21   12   13 ar
  22   12   30 ar
  23   13   14 ar
  24   14   15 ar
  25   14   18 1
  26   15   16 1
  27   15   29 ar
  28   16   17 2
  29   16   45 1
  30   17   18 1
  31   18   19 1
  32   19   20 1
  33   19   24 1
  34   19   46 1
  35   20   21 1
  36   20   47 1
  37   20   48 1
  38   21   22 1
  39   21   49 1
  40   21   50 1
  41   22   23 1
  42   22   25 am
  43   23   24 1
  44   23   51 1
  45   23   52 1
  46   24   53 1
  47   24   54 1
  48   25   26 2
  49   25   27 1
  50   27   28 1
  51   28   55 1
  52   28   56 1
  53   28   57 1
  54   29   30 ar
  55   29   31 1
  56   31   32 1
  57   31   36 1
  58   32   33 1
  59   32   58 1
  60   32   59 1
  61   33   34 1
  62   33   60 1
  63   33   61 1
  64   34   35 1
  65   35   36 1
  66   35   62 1
  67   35   63 1
  68   36   64 1
  69   36   65 1

#	End of record

