#	Name: ASD08178413
#	Creating user name:	WinNT
#	Creation time:	15. 06. 2019 21:18

#	Modifying user name:	WinNT
#	Modification time:	15. 06. 2019 21:18

#	Program:	/corina/corina34_cracker 3.40 0067  02.08.2006

@<TRIPOS>MOLECULE
ASD08178413
  86   90    0    0    0
SMALL
NO_CHARGES


@<TRIPOS>ATOM
   1 N1            -0.0168     1.3902     0.0097 N.am    
   2 C2            -0.2173     0.0103     0.0231 C.ar    
   3 C3             0.8683    -0.8557    -0.0926 C.ar    
   4 N4            -1.4399    -0.4832     0.1513 N.ar    
   5 N5            -1.6667    -1.7463     0.1686 N.ar    
   6 C6            -0.7002    -2.6368     0.0602 C.ar    
   7 C7             0.6159    -2.2190    -0.0733 C.ar    
   8 C8            -1.0247    -4.1082     0.0874 C.3     
   9 C9            -1.8115    -4.4335     1.3586 C.3     
  10 C10           -2.1410    -5.9273     1.3862 C.3     
  11 C11           -2.9278    -6.2527     2.6574 C.3     
  12 C12           -3.2523    -7.7241     2.6845 C.2     
  13 N13           -2.5213    -8.6581     3.2049 N.2     
  14 N14           -2.9690    -9.8359     3.1257 N.2     
  15 C15           -4.1130   -10.0077     2.5350 C.2     
  16 S16           -4.6995    -8.4828     2.0200 S.3     
  17 N17           -4.7575   -11.2270     2.3553 N.am    
  18 C18           -4.1929   -12.3617     2.8139 C.2     
  19 C19           -4.8913   -13.6828     2.6192 C.3     
  20 O20           -3.1229   -12.3195     3.3832 O.2     
  21 C21           -4.0568   -14.7853     3.2184 C.ar    
  22 C22           -1.0750     2.2250     0.0167 C.2     
  23 C23           -0.8601     3.7130     0.1198 C.3     
  24 O24           -2.2000     1.7786    -0.0599 O.2     
  25 C25           -2.1935     4.4152     0.1067 C.ar    
  26 C26           -2.9049     4.5698     1.2842 C.ar    
  27 C27           -2.7014     4.9086    -1.0795 C.ar    
  28 C28           -3.9244     5.5532    -1.0919 C.ar    
  29 C29           -4.6371     5.7031     0.0820 C.ar    
  30 C30           -4.1262     5.2135     1.2719 C.ar    
  31 C31           -4.6790     5.2371     2.6745 C.3     
  32 N32           -3.7089     4.5683     3.5473 N.am    
  33 C33           -2.5929     4.1433     2.6964 C.3     
  34 C34           -3.8228     4.3778     4.8767 C.2     
  35 O35           -2.9412     3.8050     5.4861 O.2     
  36 O36           -4.9133     4.8221     5.5295 O.3     
  37 C37           -4.9684     4.5820     6.9604 C.3     
  38 C38           -3.7777     5.2631     7.6381 C.3     
  39 C39           -6.2711     5.1534     7.5236 C.3     
  40 C40           -4.9145     3.0764     7.2274 C.3     
  41 C41           -4.2370   -15.1470     4.5392 C.ar    
  42 C42           -3.4686   -16.1625     5.0902 C.ar    
  43 C43           -2.5211   -16.8119     4.3127 C.ar    
  44 C44           -2.3446   -16.4463     2.9921 C.ar    
  45 C45           -3.1151   -15.4378     2.4439 C.ar    
  46 O46           -3.6437   -16.5199     6.3897 O.3     
  47 C47           -2.8177   -17.5733     6.8897 C.3     
  48 F48           -1.4729   -17.2038     6.7795 F       
  49 F49           -3.1274   -17.8110     8.2331 F       
  50 F50           -3.0442   -18.7365     6.1461 F       
  51 H51            0.8842     1.7494    -0.0006 H       
  52 H52            1.8745    -0.4770    -0.1944 H       
  53 H53            1.4199    -2.9345    -0.1636 H       
  54 H54           -1.6240    -4.3643    -0.7864 H       
  55 H55           -0.0997    -4.6845     0.0751 H       
  56 H56           -1.2123    -4.1774     2.2323 H       
  57 H57           -2.7366    -3.8571     1.3708 H       
  58 H58           -2.7402    -6.1835     0.5124 H       
  59 H59           -1.2159    -6.5037     1.3739 H       
  60 H60           -2.3286    -5.9966     3.5311 H       
  61 H61           -3.8529    -5.6763     2.6696 H       
  62 H62           -5.6133   -11.2607     1.9000 H       
  63 H63           -5.8640   -13.6554     3.1104 H       
  64 H64           -5.0274   -13.8683     1.5537 H       
  65 H65           -0.3385     3.9413     1.0493 H       
  66 H66           -0.2620     4.0532    -0.7255 H       
  67 H67           -2.1432     4.7912    -1.9966 H       
  68 H68           -4.3221     5.9396    -2.0186 H       
  69 H69           -5.5923     6.2070     0.0721 H       
  70 H70           -4.8187     6.2682     2.9992 H       
  71 H71           -5.6309     4.7069     2.7054 H       
  72 H72           -2.4865     3.0594     2.7407 H       
  73 H73           -1.6713     4.6198     3.0305 H       
  74 H74           -3.8161     6.3356     7.4479 H       
  75 H75           -3.8191     5.0828     8.7123 H       
  76 H76           -2.8496     4.8559     7.2368 H       
  77 H77           -7.1194     4.6682     7.0409 H       
  78 H78           -6.3125     4.9732     8.5978 H       
  79 H79           -6.3096     6.2260     7.3335 H       
  80 H80           -3.9864     2.6693     6.8261 H       
  81 H81           -4.9558     2.8961     8.3016 H       
  82 H82           -5.7627     2.5912     6.7446 H       
  83 H83           -4.9751   -14.6396     5.1426 H       
  84 H84           -1.9215   -17.6023     4.7394 H       
  85 H85           -1.6070   -16.9516     2.3863 H       
  86 H86           -2.9757   -15.1535     1.4114 H       
@<TRIPOS>BOND
   1    1    2 1
   2    1   22 am
   3    1   51 1
   4    2    3 ar
   5    2    4 ar
   6    3    7 ar
   7    3   52 1
   8    4    5 ar
   9    5    6 ar
  10    6    7 ar
  11    6    8 1
  12    7   53 1
  13    8    9 1
  14    8   54 1
  15    8   55 1
  16    9   10 1
  17    9   56 1
  18    9   57 1
  19   10   11 1
  20   10   58 1
  21   10   59 1
  22   11   12 1
  23   11   60 1
  24   11   61 1
  25   12   13 2
  26   12   16 1
  27   13   14 1
  28   14   15 2
  29   15   16 1
  30   15   17 1
  31   17   18 am
  32   17   62 1
  33   18   19 1
  34   18   20 2
  35   19   21 1
  36   19   63 1
  37   19   64 1
  38   21   41 ar
  39   21   45 ar
  40   22   23 1
  41   22   24 2
  42   23   25 1
  43   23   65 1
  44   23   66 1
  45   25   26 ar
  46   25   27 ar
  47   26   30 ar
  48   26   33 1
  49   27   28 ar
  50   27   67 1
  51   28   29 ar
  52   28   68 1
  53   29   30 ar
  54   29   69 1
  55   30   31 1
  56   31   32 1
  57   31   70 1
  58   31   71 1
  59   32   33 1
  60   32   34 am
  61   33   72 1
  62   33   73 1
  63   34   35 2
  64   34   36 1
  65   36   37 1
  66   37   38 1
  67   37   39 1
  68   37   40 1
  69   38   74 1
  70   38   75 1
  71   38   76 1
  72   39   77 1
  73   39   78 1
  74   39   79 1
  75   40   80 1
  76   40   81 1
  77   40   82 1
  78   41   42 ar
  79   41   83 1
  80   42   43 ar
  81   42   46 1
  82   43   44 ar
  83   43   84 1
  84   44   45 ar
  85   44   85 1
  86   45   86 1
  87   46   47 1
  88   47   48 1
  89   47   49 1
  90   47   50 1

#	End of record

