#	Name: ASD03918001
#	Creating user name:	WinNT
#	Creation time:	15. 06. 2019 20:47

#	Modifying user name:	WinNT
#	Modification time:	15. 06. 2019 20:47

#	Program:	/corina/corina34_cracker 3.40 0067  02.08.2006

@<TRIPOS>MOLECULE
ASD03918001
  72   74    0    0    0
SMALL
NO_CHARGES


@<TRIPOS>ATOM
   1 C1             3.0717   -13.1005    -4.5522 C.2     
   2 C2             2.7352   -12.0972    -5.6252 C.3     
   3 C3             3.9889   -11.7883    -6.4459 C.3     
   4 O4             2.9157   -12.8157    -3.3884 O.2     
   5 O5             3.5396   -14.3125    -4.8897 O.3     
   6 C6             1.6547   -12.6741    -6.5420 C.3     
   7 O7             2.2542   -10.8955    -5.0196 O.3     
   8 C8             3.0968   -10.2535    -4.1684 C.ar    
   9 C9             2.7222    -9.0447    -3.5999 C.ar    
  10 C10            3.5803    -8.3943    -2.7345 C.ar    
  11 C11            4.8117    -8.9471    -2.4347 C.ar    
  12 C12            5.1874   -10.1517    -2.9999 C.ar    
  13 C13            4.3307   -10.8086    -3.8619 C.ar    
  14 C14            5.7461    -8.2352    -1.4907 C.3     
  15 C15            5.4790    -8.6922    -0.0797 C.2     
  16 N16            6.2003    -8.1866     0.9403 N.am    
  17 O17            4.6149    -9.5150     0.1379 O.2     
  18 C18            6.0286    -8.6887     2.2350 C.ar    
  19 C19            5.7320   -10.0306     2.4258 C.ar    
  20 C20            5.5629   -10.5247     3.7113 C.ar    
  21 C21            5.6909    -9.6751     4.8029 C.ar    
  22 C22            5.9863    -8.3393     4.6095 C.ar    
  23 C23            6.1604    -7.8454     3.3311 C.ar    
  24 C24            5.8102   -12.5451     4.9429 C.2     
  25 C25            5.5771   -14.0266     5.0914 C.3     
  26 O26            6.4900   -11.9538     5.7549 O.2     
  27 N27            5.2633   -11.8773     3.9079 N.am    
  28 C28            6.2921   -14.5269     6.3200 C.ar    
  29 C29            5.6426   -14.5364     7.5406 C.ar    
  30 C30            6.2958   -14.9946     8.6684 C.ar    
  31 C31            7.6044   -15.4459     8.5754 C.ar    
  32 C32            8.2537   -15.4357     7.3494 C.ar    
  33 C33            7.5945   -14.9811     6.2237 C.ar    
  34 O34            8.2493   -15.8966     9.6834 O.3     
  35 C35            9.6312   -16.2307     9.5390 C.3     
  36 C36           10.4121   -14.9911     9.0980 C.3     
  37 C37           10.1783   -16.7284    10.8783 C.3     
  38 C38            9.7804   -17.3137     8.5017 C.2     
  39 O39            8.8036   -17.7543     7.9435 O.2     
  40 O40           10.9985   -17.7888     8.1980 O.3     
  41 H41            4.4538   -12.7213    -6.7643 H       
  42 H42            3.7139   -11.2017    -7.3225 H       
  43 H43            4.6922   -11.2217    -5.8356 H       
  44 H44            3.7414   -14.9221    -4.1667 H       
  45 H45            0.7942   -12.9756    -5.9447 H       
  46 H46            1.3485   -11.9170    -7.2639 H       
  47 H47            2.0516   -13.5408    -7.0707 H       
  48 H48            1.7606    -8.6124    -3.8340 H       
  49 H49            3.2893    -7.4531    -2.2920 H       
  50 H50            6.1498   -10.5814    -2.7642 H       
  51 H51            4.6228   -11.7518    -4.2996 H       
  52 H52            6.7775    -8.4653    -1.7581 H       
  53 H53            5.5838    -7.1596    -1.5611 H       
  54 H54            6.8385    -7.4746     0.7769 H       
  55 H55            5.6327   -10.6891     1.5755 H       
  56 H56            5.5590   -10.0590     5.8037 H       
  57 H57            6.0853    -7.6808     5.4598 H       
  58 H58            6.3953    -6.8016     3.1834 H       
  59 H59            4.5086   -14.2182     5.1895 H       
  60 H60            5.9600   -14.5446     4.2121 H       
  61 H61            4.6620   -12.3343     3.2992 H       
  62 H62            4.6239   -14.1850     7.6125 H       
  63 H63            5.7883   -15.0012     9.6217 H       
  64 H64            9.2725   -15.7862     7.2745 H       
  65 H65            8.0983   -14.9765     5.2684 H       
  66 H66           10.2834   -14.1991     9.8357 H       
  67 H67           11.4700   -15.2395     9.0124 H       
  68 H68           10.0393   -14.6515     8.1316 H       
  69 H69            9.5682   -17.5586    11.2341 H       
  70 H70           11.2074   -17.0633    10.7485 H       
  71 H71           10.1491   -15.9178    11.6065 H       
  72 H72           11.0440   -18.4831     7.5265 H       
@<TRIPOS>BOND
   1    1    2 1
   2    1    4 2
   3    1    5 1
   4    2    3 1
   5    2    6 1
   6    2    7 1
   7    3   41 1
   8    3   42 1
   9    3   43 1
  10    5   44 1
  11    6   45 1
  12    6   46 1
  13    6   47 1
  14    7    8 1
  15    8    9 ar
  16    8   13 ar
  17    9   10 ar
  18    9   48 1
  19   10   11 ar
  20   10   49 1
  21   11   12 ar
  22   11   14 1
  23   12   13 ar
  24   12   50 1
  25   13   51 1
  26   14   15 1
  27   14   52 1
  28   14   53 1
  29   15   16 am
  30   15   17 2
  31   16   18 1
  32   16   54 1
  33   18   19 ar
  34   18   23 ar
  35   19   20 ar
  36   19   55 1
  37   20   21 ar
  38   20   27 1
  39   21   22 ar
  40   21   56 1
  41   22   23 ar
  42   22   57 1
  43   23   58 1
  44   24   25 1
  45   24   26 2
  46   24   27 am
  47   25   28 1
  48   25   59 1
  49   25   60 1
  50   27   61 1
  51   28   29 ar
  52   28   33 ar
  53   29   30 ar
  54   29   62 1
  55   30   31 ar
  56   30   63 1
  57   31   32 ar
  58   31   34 1
  59   32   33 ar
  60   32   64 1
  61   33   65 1
  62   34   35 1
  63   35   36 1
  64   35   37 1
  65   35   38 1
  66   36   66 1
  67   36   67 1
  68   36   68 1
  69   37   69 1
  70   37   70 1
  71   37   71 1
  72   38   39 2
  73   38   40 1
  74   40   72 1

#	End of record

