#	Name: ASD09740659
#	Creating user name:	WinNT
#	Creation time:	15. 06. 2019 21:23

#	Modifying user name:	WinNT
#	Modification time:	15. 06. 2019 21:23

#	Program:	/corina/corina34_cracker 3.40 0067  02.08.2006

@<TRIPOS>MOLECULE
ASD09740659
  67   70    0    0    0
SMALL
NO_CHARGES


@<TRIPOS>ATOM
   1 C1             1.1042     1.8696    -0.5393 C.1     
   2 C2             0.8251     3.2682    -0.4099 C.ar    
   3 C3             1.8776     4.1947    -0.3609 C.ar    
   4 C4             1.6042     5.5491    -0.2360 C.ar    
   5 C5             0.3005     5.9901    -0.1597 C.ar    
   6 C6            -0.7560     5.0760    -0.2071 C.ar    
   7 C7            -0.4935     3.7147    -0.3381 C.ar    
   8 N8             1.3257     0.7601    -0.6419 N.1     
   9 O9             3.1626     3.7661    -0.4351 O.3     
  10 C10            4.1793     4.7692    -0.4836 C.3     
  11 C11            4.5241     5.2150     0.9388 C.3     
  12 C12            5.4289     4.1967    -1.1557 C.3     
  13 S13           -2.6661     7.2353     0.0359 S.3     
  14 C14           -2.1518     5.5548    -0.1243 C.2     
  15 N15           -3.2240     4.8094    -0.1575 N.2     
  16 N16           -4.3415     5.3879    -0.0750 N.2     
  17 C17           -4.3440     6.6887     0.0375 C.2     
  18 C18           -9.1834     6.9438     0.2025 C.3     
  19 C19           -8.7098     5.5061     0.5039 C.3     
  20 C20           -7.2440     5.5333     0.0211 C.3     
  21 C21           -6.8167     6.9807     0.1356 C.ar    
  22 C22           -5.5399     7.5504     0.1477 C.ar    
  23 C23           -5.3961     8.9326     0.2645 C.ar    
  24 C24           -6.5163     9.7315     0.3675 C.ar    
  25 C25           -7.7762     9.1635     0.3555 C.ar    
  26 C26           -7.9286     7.7902     0.2397 C.ar    
  27 O27           -9.7855     7.0064    -1.0919 O.3     
  28 Si28         -11.4123     6.8898    -1.0732 Si      
  29 C29          -11.9133     5.3377    -0.1729 C.3     
  30 C30          -12.1311     8.3720    -0.2030 C.3     
  31 C31          -12.0505     6.8266    -2.8223 C.3     
  32 C32          -11.4601     5.6094    -3.5370 C.3     
  33 C33          -13.5765     6.7173    -2.8048 C.3     
  34 C34          -11.6390     8.1014    -3.5617 C.3     
  35 H35            2.4158     6.2606    -0.1980 H       
  36 H36            0.0945     7.0458    -0.0626 H       
  37 H37           -1.3083     3.0070    -0.3794 H       
  38 H38            3.8188     5.6245    -1.0551 H       
  39 H39            5.2996     5.9801     0.9019 H       
  40 H40            3.6339     5.6228     1.4177 H       
  41 H41            4.8846     4.3597     1.5103 H       
  42 H42            5.1832     3.8791    -2.1690 H       
  43 H43            6.2043     4.9618    -1.1927 H       
  44 H44            5.7893     3.3414    -0.5842 H       
  45 H45           -9.8876     7.2777     0.9646 H       
  46 H46           -8.7621     5.2967     1.5723 H       
  47 H47           -9.2913     4.7795    -0.0635 H       
  48 H48           -6.6237     4.9041     0.6594 H       
  49 H49           -7.1808     5.2010    -1.0151 H       
  50 H50           -4.4114     9.3760     0.2745 H       
  51 H51           -6.4084    10.8023     0.4581 H       
  52 H52           -8.6490     9.7944     0.4373 H       
  53 H53          -11.5399     5.3747     0.8505 H       
  54 H54          -13.0004     5.2598    -0.1604 H       
  55 H55          -11.4927     4.4705    -0.6820 H       
  56 H56          -11.9016     9.2735    -0.7711 H       
  57 H57          -13.2122     8.2579    -0.1239 H       
  58 H58          -11.7001     8.4518     0.7950 H       
  59 H59          -11.7532     4.7013    -3.0102 H       
  60 H60          -11.8335     5.5724    -4.5603 H       
  61 H61          -10.3730     5.6873    -3.5495 H       
  62 H62          -13.9971     7.5844    -2.2956 H       
  63 H63          -13.9499     6.6803    -3.8281 H       
  64 H64          -13.8696     5.8091    -2.2780 H       
  65 H65          -10.5519     8.1793    -3.5742 H       
  66 H66          -12.0124     8.0644    -4.5851 H       
  67 H67          -12.0596     8.9685    -3.0526 H       
@<TRIPOS>BOND
   1    1    2 1
   2    1    8 3
   3    2    3 ar
   4    2    7 ar
   5    3    4 ar
   6    3    9 1
   7    4    5 ar
   8    4   35 1
   9    5    6 ar
  10    5   36 1
  11    6    7 ar
  12    6   14 1
  13    7   37 1
  14    9   10 1
  15   10   11 1
  16   10   12 1
  17   10   38 1
  18   11   39 1
  19   11   40 1
  20   11   41 1
  21   12   42 1
  22   12   43 1
  23   12   44 1
  24   13   14 1
  25   13   17 1
  26   14   15 2
  27   15   16 1
  28   16   17 2
  29   17   22 1
  30   18   19 1
  31   18   26 1
  32   18   27 1
  33   18   45 1
  34   19   20 1
  35   19   46 1
  36   19   47 1
  37   20   21 1
  38   20   48 1
  39   20   49 1
  40   21   22 ar
  41   21   26 ar
  42   22   23 ar
  43   23   24 ar
  44   23   50 1
  45   24   25 ar
  46   24   51 1
  47   25   26 ar
  48   25   52 1
  49   27   28 1
  50   28   29 1
  51   28   30 1
  52   28   31 1
  53   29   53 1
  54   29   54 1
  55   29   55 1
  56   30   56 1
  57   30   57 1
  58   30   58 1
  59   31   32 1
  60   31   34 1
  61   31   33 1
  62   32   59 1
  63   32   60 1
  64   32   61 1
  65   33   62 1
  66   33   63 1
  67   33   64 1
  68   34   65 1
  69   34   66 1
  70   34   67 1

#	End of record

