#	Name: ASD01870582
#	Creating user name:	WinNT
#	Creation time:	15. 06. 2019 19:39

#	Modifying user name:	WinNT
#	Modification time:	15. 06. 2019 19:39

#	Program:	/corina/corina34_cracker 3.40 0067  02.08.2006

@<TRIPOS>MOLECULE
ASD01870582
  42   45    0    0    0
SMALL
NO_CHARGES


@<TRIPOS>ATOM
   1 C1            -0.0107     1.3944     0.0268 C.ar    
   2 C2             0.0041     0.0062     0.0172 C.ar    
   3 C3             1.2070    -0.6715    -0.0031 C.ar    
   4 C4             2.4025     0.0350    -0.0140 C.ar    
   5 C5             2.3887     1.4241    -0.0049 C.ar    
   6 C6             1.1858     2.1023     0.0155 C.ar    
   7 N7             3.6216    -0.6526    -0.0337 N.am    
   8 C8             4.6709    -0.1446    -0.7100 C.2     
   9 C9             5.9792    -0.8025    -0.6353 C.2     
  10 O10            6.2661    -1.9194     0.0650 O.3     
  11 C11            7.1193    -0.3955    -1.2672 C.2     
  12 C12            8.1234    -1.3120    -0.9179 C.2     
  13 C13            7.5586    -2.2286    -0.1014 C.2     
  14 C14            7.2702     0.8049    -2.1658 C.3     
  15 O15            4.5326     0.8602    -1.3828 O.2     
  16 Cl16           1.1678     3.8381     0.0269 Cl      
  17 N17           -1.2309     2.0817     0.0421 N.am    
  18 C18           -1.9039     2.4592     1.1428 C.2     
  19 C19           -3.1470     3.1599     0.7675 C.ar    
  20 C20           -1.9836     2.5147    -1.1409 C.3     
  21 C21           -5.2422     4.3384     0.9053 C.ar    
  22 C22           -5.3180     4.3831    -0.4728 C.ar    
  23 C23           -4.3018     3.8153    -1.2481 C.ar    
  24 C24           -3.2213     3.2037    -0.6239 C.ar    
  25 C25           -4.1691     3.7340     1.5288 C.ar    
  26 O26           -1.5402     2.2527     2.2844 O.2     
  27 C27           -4.3768     3.8598    -2.6774 C.1     
  28 N28           -4.4363     3.8951    -3.8113 N.1     
  29 H29           -0.9253    -0.5437     0.0260 H       
  30 H30            1.2181    -1.7514    -0.0102 H       
  31 H31            3.3184     1.9735    -0.0130 H       
  32 H32            3.7112    -1.4946     0.4394 H       
  33 H33            9.1530    -1.2905    -1.2433 H       
  34 H34            8.0654    -3.0731     0.3420 H       
  35 H35            7.5509     1.6726    -1.5689 H       
  36 H36            8.0442     0.6084    -2.9077 H       
  37 H37            6.3245     1.0018    -2.6708 H       
  38 H38           -1.3855     3.2079    -1.7324 H       
  39 H39           -2.2627     1.6508    -1.7442 H       
  40 H40           -6.0291     4.7785     1.4998 H       
  41 H41           -6.1613     4.8581    -0.9520 H       
  42 H42           -4.1193     3.7044     2.6073 H       
@<TRIPOS>BOND
   1    1    2 ar
   2    1    6 ar
   3    1   17 1
   4    2    3 ar
   5    2   29 1
   6    3    4 ar
   7    3   30 1
   8    4    5 ar
   9    4    7 1
  10    5    6 ar
  11    5   31 1
  12    6   16 1
  13    7    8 am
  14    7   32 1
  15    8    9 1
  16    8   15 2
  17    9   11 2
  18    9   10 1
  19   10   13 1
  20   11   12 1
  21   11   14 1
  22   12   13 2
  23   12   33 1
  24   13   34 1
  25   14   35 1
  26   14   36 1
  27   14   37 1
  28   17   18 am
  29   17   20 1
  30   18   19 1
  31   18   26 2
  32   19   25 ar
  33   19   24 ar
  34   20   24 1
  35   20   38 1
  36   20   39 1
  37   21   22 ar
  38   21   25 ar
  39   21   40 1
  40   22   23 ar
  41   22   41 1
  42   23   24 ar
  43   23   27 1
  44   25   42 1
  45   27   28 3

#	End of record

