#	Name: ASD01940437
#	Creating user name:	WinNT
#	Creation time:	15. 06. 2019 20:12

#	Modifying user name:	WinNT
#	Modification time:	15. 06. 2019 20:12

#	Program:	/corina/corina34_cracker 3.40 0067  02.08.2006

@<TRIPOS>MOLECULE
ASD01940437
  37   39    0    0    0
SMALL
NO_CHARGES


@<TRIPOS>ATOM
   1 N1            -0.0169     1.3941     0.0097 N.am    
   2 N2             0.0021    -0.0041     0.0020 N.2     
   3 C3             1.2307    -0.4351    -0.0120 C.2     
   4 C4             2.1102     0.7306    -0.0142 C.ar    
   5 C5             3.4974     0.8971    -0.0269 C.ar    
   6 C6             4.0307     2.1827    -0.0255 C.ar    
   7 C7             3.1787     3.2989    -0.0114 C.ar    
   8 C8             1.8268     3.1406     0.0015 C.ar    
   9 C9             1.2687     1.8611    -0.0001 C.ar    
  10 C10            5.4927     2.3730    -0.0384 C.2     
  11 O11            6.2309     1.4079    -0.0502 O.2     
  12 O12            6.0102     3.6171    -0.0370 O.3     
  13 S13           -1.3795     2.3352     0.0215 S.o2    
  14 O14           -1.0022     3.5943    -0.5185 O.2     
  15 O15           -2.4226     1.5377    -0.5216 O.2     
  16 C16           -2.4597     3.0747     4.3548 C.ar    
  17 C17           -1.7999     2.6231     1.7082 C.ar    
  18 C18           -1.6144     3.9468     3.6946 C.ar    
  19 C19           -2.9751     1.9768     3.6916 C.ar    
  20 C20           -1.2845     3.7210     2.3713 C.ar    
  21 C21           -2.6452     1.7509     2.3683 C.ar    
  22 C22           -2.8144     3.3175     5.7992 C.3     
  23 Cl23           4.5459    -0.4864    -0.0438 Cl      
  24 C24            7.4579     3.7289    -0.0502 C.3     
  25 H25            1.5431    -1.4689    -0.0202 H       
  26 H26            3.6004     4.2932    -0.0104 H       
  27 H27            1.1837     4.0082     0.0130 H       
  28 H28           -1.2121     4.8049     4.2126 H       
  29 H29           -3.6353     1.2952     4.2075 H       
  30 H30           -0.6244     4.4026     1.8555 H       
  31 H31           -3.0482     0.8933     1.8501 H       
  32 H32           -3.7088     3.9381     5.8543 H       
  33 H33           -3.0030     2.3638     6.2922 H       
  34 H34           -1.9880     3.8261     6.2957 H       
  35 H35            7.8681     3.2401     0.8335 H       
  36 H36            7.8512     3.2491    -0.9463 H       
  37 H37            7.7410     4.7815    -0.0475 H       
@<TRIPOS>BOND
   1    1    2 1
   2    1    9 1
   3    1   13 am
   4    2    3 2
   5    3    4 1
   6    3   25 1
   7    4    5 ar
   8    4    9 ar
   9    5    6 ar
  10    5   23 1
  11    6    7 ar
  12    6   10 1
  13    7    8 ar
  14    7   26 1
  15    8    9 ar
  16    8   27 1
  17   10   11 2
  18   10   12 1
  19   12   24 1
  20   13   14 2
  21   13   15 2
  22   13   17 1
  23   16   18 ar
  24   16   19 ar
  25   16   22 1
  26   17   20 ar
  27   17   21 ar
  28   18   20 ar
  29   18   28 1
  30   19   21 ar
  31   19   29 1
  32   20   30 1
  33   21   31 1
  34   22   32 1
  35   22   33 1
  36   22   34 1
  37   24   35 1
  38   24   36 1
  39   24   37 1

#	End of record

