#	Name: ASD01200313
#	Creating user name:	WinNT
#	Creation time:	15. 06. 2019 19:08

#	Modifying user name:	WinNT
#	Modification time:	15. 06. 2019 19:08

#	Program:	/corina/corina34_cracker 3.40 0067  02.08.2006

@<TRIPOS>MOLECULE
ASD01200313
  50   52    0    0    0
SMALL
NO_CHARGES


@<TRIPOS>ATOM
   1 C1            -0.0078     1.3847    -0.1014 C.ar    
   2 C2            -0.0073     0.0037     0.1054 C.ar    
   3 C3            -1.1573    -0.7203     0.0081 C.ar    
   4 C4            -2.3618    -0.0759    -0.3039 C.ar    
   5 C5            -2.3685     1.3247    -0.5147 C.ar    
   6 C6            -1.1772     2.0492    -0.4042 C.ar    
   7 N7            -3.5182    -0.7485    -0.4106 N.ar    
   8 C8            -4.6299    -0.1179    -0.7042 C.ar    
   9 N9            -4.6847     1.1887    -0.9100 N.ar    
  10 C10           -3.6009     1.9484    -0.8290 C.ar    
  11 O11            1.1547     2.0814     0.0022 O.3     
  12 N12           -3.6716     3.3102    -1.0463 N.pl3   
  13 C13           -4.8888     3.9015    -1.3545 C.2     
  14 N14           -5.0649     5.1669    -1.5763 N.2     
  15 C15           -6.2941     5.5588    -1.8566 C.2     
  16 C16           -7.1989     4.5786    -1.8723 C.2     
  17 S17           -6.3733     3.0666    -1.5040 S.3     
  18 C18           -6.6467     6.9972    -2.1355 C.3     
  19 P19           -6.4879     7.3265    -3.9214 P.3     
  20 C20           -6.7693     9.0993    -4.2398 C.3     
  21 O21           -5.1285     6.9540    -4.3728 O.2     
  22 C22            1.0698     3.5041    -0.1003 C.3     
  23 C23            2.1897     4.1426     0.7239 C.3     
  24 F24            1.9924     3.8567     2.0791 F       
  25 F25            0.1283     3.4301    -2.2988 F       
  26 C26            1.2148     3.9194    -1.5657 C.3     
  27 O27           -7.5778     6.4570    -4.7265 O.3     
  28 C28           -8.7857     5.4988    -6.5875 C.3     
  29 C29           -7.6399     6.4152    -6.1535 C.3     
  30 H30            0.9184    -0.4979     0.3457 H       
  31 H31           -1.1405    -1.7879     0.1706 H       
  32 H32           -1.1719     3.1174    -0.5628 H       
  33 H33           -5.5423    -0.6906    -0.7821 H       
  34 H34           -2.8705     3.8535    -0.9837 H       
  35 H35           -8.2529     4.6917    -2.0788 H       
  36 H36           -7.6728     7.1873    -1.8208 H       
  37 H37           -5.9706     7.6505    -1.5840 H       
  38 H38           -6.0314     9.6880    -3.6947 H       
  39 H39           -6.6743     9.2963    -5.3076 H       
  40 H40           -7.7705     9.3737    -3.9074 H       
  41 H41            0.1040     3.8387     0.2783 H       
  42 H42            3.1509     3.7404     0.4039 H       
  43 H43            2.1800     5.2223     0.5751 H       
  44 H44            1.2391     5.0070    -1.6345 H       
  45 H45            2.1402     3.5090    -1.9698 H       
  46 H46           -8.8331     5.4668    -7.6760 H       
  47 H47           -8.6134     4.4940    -6.2016 H       
  48 H48           -9.7269     5.8826    -6.1939 H       
  49 H49           -7.8122     7.4199    -6.5394 H       
  50 H50           -6.6987     6.0313    -6.5471 H       
@<TRIPOS>BOND
   1    1    2 ar
   2    1   11 1
   3    1    6 ar
   4    2    3 ar
   5    2   30 1
   6    3    4 ar
   7    3   31 1
   8    4    5 ar
   9    4    7 ar
  10    5    6 ar
  11    5   10 ar
  12    6   32 1
  13    7    8 ar
  14    8    9 ar
  15    8   33 1
  16    9   10 ar
  17   10   12 1
  18   11   22 1
  19   12   13 1
  20   12   34 1
  21   13   14 2
  22   13   17 1
  23   14   15 1
  24   15   16 2
  25   15   18 1
  26   16   17 1
  27   16   35 1
  28   18   19 1
  29   18   36 1
  30   18   37 1
  31   19   20 1
  32   19   21 2
  33   19   27 1
  34   20   38 1
  35   20   39 1
  36   20   40 1
  37   22   23 1
  38   22   26 1
  39   22   41 1
  40   23   24 1
  41   23   42 1
  42   23   43 1
  43   25   26 1
  44   26   44 1
  45   26   45 1
  46   27   29 1
  47   28   29 1
  48   28   46 1
  49   28   47 1
  50   28   48 1
  51   29   49 1
  52   29   50 1

#	End of record

