#	Name: ASD05130075
#	Creating user name:	WinNT
#	Creation time:	15. 06. 2019 20:56

#	Modifying user name:	WinNT
#	Modification time:	15. 06. 2019 20:56

#	Program:	/corina/corina34_cracker 3.40 0067  02.08.2006

@<TRIPOS>MOLECULE
ASD05130075
  56   59    0    0    0
SMALL
NO_CHARGES


@<TRIPOS>ATOM
   1 N1             0.2078     2.0822    -0.2394 N.am    
   2 C2             0.1810     0.8853     0.3796 C.2     
   3 O3             1.2020     0.4206     0.8489 O.2     
   4 N4            -0.9774     0.2035     0.4786 N.am    
   5 C5            -0.9839    -1.0915     1.0086 C.ar    
   6 C6            -2.1305    -1.5903     1.6128 C.ar    
   7 C7            -2.1337    -2.8689     2.1349 C.ar    
   8 C8            -0.9967    -3.6521     2.0570 C.ar    
   9 C9             0.1466    -3.1583     1.4560 C.ar    
  10 C10            0.1544    -1.8828     0.9264 C.ar    
  11 C11            1.3927     2.8293    -0.2689 C.ar    
  12 C12            1.3392     4.2141    -0.3979 C.ar    
  13 C13            2.5072     4.9552    -0.4279 C.ar    
  14 C14            3.7323     4.3246    -0.3294 C.ar    
  15 C15            3.7941     2.9368    -0.1994 C.ar    
  16 C16            2.6172     2.1904    -0.1639 C.ar    
  17 F17            0.1438     4.8362    -0.4946 F       
  18 Br18           5.3256     5.3422    -0.3715 Br      
  19 N19            7.0666     1.7059     1.2499 N.am    
  20 C20            5.8726     2.3229     1.1534 C.2     
  21 C21            5.1072     2.2585    -0.0942 C.2     
  22 C22            5.6127     1.5675    -1.1611 C.2     
  23 C23            6.8691     0.9280    -1.0345 C.ar    
  24 C24            7.4249     0.2102    -2.1009 C.ar    
  25 N25            8.5933    -0.3780    -1.9664 N.ar    
  26 C26            9.2889    -0.3209    -0.8363 C.ar    
  27 C27            8.8130     0.3685     0.2685 C.ar    
  28 C28            7.5816     1.0091     0.1814 C.ar    
  29 O29            5.4277     2.9362     2.1072 O.2     
  30 C30            7.8251     1.7827     2.5008 C.3     
  31 C31            7.4334     0.6141     3.4074 C.3     
  32 C32           11.0422    -1.5532    -1.8545 C.2     
  33 C33           12.4241    -2.1521    -1.8014 C.3     
  34 O34           10.4004    -1.5995    -2.8824 O.2     
  35 N35           10.5197    -0.9662    -0.7596 N.am    
  36 H36           -0.5922     2.4245    -0.6681 H       
  37 H37           -1.8065     0.6106     0.1825 H       
  38 H38           -3.0186    -0.9789     1.6746 H       
  39 H39           -3.0251    -3.2574     2.6049 H       
  40 H40           -1.0016    -4.6513     2.4667 H       
  41 H41            1.0330    -3.7724     1.3967 H       
  42 H42            1.0462    -1.4993     0.4532 H       
  43 H43            2.4610     6.0295    -0.5288 H       
  44 H44            2.6602     1.1164    -0.0593 H       
  45 H45            5.0605     1.5105    -2.0875 H       
  46 H46            6.8916     0.1393    -3.0374 H       
  47 H47            9.3886     0.4069     1.1815 H       
  48 H48            8.8918     1.7316     2.2827 H       
  49 H49            7.6019     2.7235     3.0039 H       
  50 H50            6.3667     0.6653     3.6256 H       
  51 H51            7.6566    -0.3267     2.9043 H       
  52 H52            7.9978     0.6713     4.3382 H       
  53 H53           12.6733    -2.5776    -2.7735 H       
  54 H54           13.1468    -1.3764    -1.5482 H       
  55 H55           12.4517    -2.9356    -1.0440 H       
  56 H56           11.0014    -0.9935     0.0819 H       
@<TRIPOS>BOND
   1    1    2 am
   2    1   11 1
   3    1   36 1
   4    2    3 2
   5    2    4 am
   6    4    5 1
   7    4   37 1
   8    5    6 ar
   9    5   10 ar
  10    6    7 ar
  11    6   38 1
  12    7    8 ar
  13    7   39 1
  14    8    9 ar
  15    8   40 1
  16    9   10 ar
  17    9   41 1
  18   10   42 1
  19   11   12 ar
  20   11   16 ar
  21   12   13 ar
  22   12   17 1
  23   13   14 ar
  24   13   43 1
  25   14   15 ar
  26   14   18 1
  27   15   16 ar
  28   15   21 1
  29   16   44 1
  30   19   20 am
  31   19   28 1
  32   19   30 1
  33   20   21 1
  34   20   29 2
  35   21   22 2
  36   22   23 1
  37   22   45 1
  38   23   24 ar
  39   23   28 ar
  40   24   25 ar
  41   24   46 1
  42   25   26 ar
  43   26   27 ar
  44   26   35 1
  45   27   28 ar
  46   27   47 1
  47   30   31 1
  48   30   48 1
  49   30   49 1
  50   31   50 1
  51   31   51 1
  52   31   52 1
  53   32   33 1
  54   32   34 2
  55   32   35 am
  56   33   53 1
  57   33   54 1
  58   33   55 1
  59   35   56 1

#	End of record

