#	Name: ASD09116135
#	Creating user name:	WinNT
#	Creation time:	15. 06. 2019 21:20

#	Modifying user name:	WinNT
#	Modification time:	15. 06. 2019 21:20

#	Program:	/corina/corina34_cracker 3.40 0067  02.08.2006

@<TRIPOS>MOLECULE
ASD09116135
  60   65    0    0    0
SMALL
NO_CHARGES


@<TRIPOS>ATOM
   1 N1            -0.0266     1.4809     0.1057 N.2     
   2 C2            -0.0141     0.0098     0.1920 C.3     
   3 C3             1.2222     1.8594     0.0817 C.2     
   4 N4             2.0840     0.8237     0.1413 N.2     
   5 C5             1.4645    -0.3257     0.2096 C.2     
   6 N6             1.6189     3.1796     0.0032 N.pl3   
   7 C7             2.9746     3.5091     0.0977 C.ar    
   8 C8             3.4704     4.6163    -0.5787 C.ar    
   9 C9             3.8271     2.7333     0.8726 C.ar    
  10 C10            5.1654     3.0618     0.9641 C.ar    
  11 C11            5.6569     4.1617     0.2852 C.ar    
  12 C12            4.8098     4.9393    -0.4829 C.ar    
  13 N13            2.0277    -1.5617     0.2817 N.pl3   
  14 C14           -0.6796    -0.4539     1.4621 C.ar    
  15 N15           -0.4096     0.1721     2.5900 N.ar    
  16 N16           -1.5200    -1.4722     1.4098 N.ar    
  17 C17           -2.1146    -1.8977     2.5025 C.ar    
  18 C18           -1.8491    -1.2653     3.7129 C.ar    
  19 C19           -0.9733    -0.2041     3.7311 C.ar    
  20 C20           -3.1150    -3.0179     2.7848 C.3     
  21 C21           -4.4446    -2.2723     3.1247 C.3     
  22 C22           -4.1478    -1.5691     4.4710 C.3     
  23 C23           -2.6718    -1.9688     4.7896 C.3     
  24 C24           -2.6541    -3.4391     4.2291 C.3     
  25 C25            7.1178     4.5172     0.3874 C.3     
  26 C26            7.7519     4.4811    -1.0059 C.3     
  27 C27            7.2622     5.9263     0.9689 C.3     
  28 C28            8.7442     6.3051     1.0135 C.3     
  29 N29            9.3043     6.2563    -0.3431 N.3     
  30 C30            9.2198     4.9018    -0.9040 C.3     
  31 C31           10.6887     6.7473    -0.3591 C.3     
  32 H32           -0.5005    -0.4306    -0.6784 H       
  33 H33            0.9572     3.8785    -0.1174 H       
  34 H34            2.8094     5.2238    -1.1791 H       
  35 H35            3.4437     1.8744     1.4033 H       
  36 H36            5.8287     2.4592     1.5668 H       
  37 H37            5.1968     5.7977    -1.0119 H       
  38 H38            2.9931    -1.6553     0.2859 H       
  39 H39            1.4638    -2.3496     0.3291 H       
  40 H40           -0.7460     0.3082     4.6543 H       
  41 H41           -3.1825    -3.8043     2.0330 H       
  42 H42           -4.6786    -1.5381     2.3538 H       
  43 H43           -5.2631    -2.9832     3.2375 H       
  44 H44           -4.2364    -0.4879     4.3650 H       
  45 H45           -4.8187    -1.9340     5.2487 H       
  46 H46           -2.3444    -1.8225     5.8189 H       
  47 H47           -3.3815    -4.0811     4.7258 H       
  48 H48           -1.6543    -3.8733     4.2352 H       
  49 H49            7.6225     3.8010     1.0359 H       
  50 H50            7.6902     3.4697    -1.4077 H       
  51 H51            7.2213     5.1681    -1.6651 H       
  52 H52            6.7239     6.6361     0.3408 H       
  53 H53            6.8506     5.9474     1.9780 H       
  54 H54            8.8495     7.3134     1.4138 H       
  55 H55            9.2795     5.6030     1.6528 H       
  56 H56            9.7528     4.2063    -0.2557 H       
  57 H57            9.6703     4.8910    -1.8965 H       
  58 H58           11.3018     6.1269     0.2946 H       
  59 H59           11.0791     6.7003    -1.3757 H       
  60 H60           10.7124     7.7789    -0.0081 H       
@<TRIPOS>BOND
   1    1    2 1
   2    1    3 2
   3    2   14 1
   4    2    5 1
   5    2   32 1
   6    3    4 1
   7    3    6 1
   8    4    5 2
   9    5   13 1
  10    6    7 1
  11    6   33 1
  12    7    8 ar
  13    7    9 ar
  14    8   12 ar
  15    8   34 1
  16    9   10 ar
  17    9   35 1
  18   10   11 ar
  19   10   36 1
  20   11   12 ar
  21   11   25 1
  22   12   37 1
  23   13   38 1
  24   13   39 1
  25   14   15 ar
  26   14   16 ar
  27   15   19 ar
  28   16   17 ar
  29   17   18 ar
  30   17   20 1
  31   18   19 ar
  32   18   23 1
  33   19   40 1
  34   20   21 1
  35   20   24 1
  36   20   41 1
  37   21   22 1
  38   21   42 1
  39   21   43 1
  40   22   23 1
  41   22   44 1
  42   22   45 1
  43   23   24 1
  44   23   46 1
  45   24   47 1
  46   24   48 1
  47   25   26 1
  48   25   27 1
  49   25   49 1
  50   26   30 1
  51   26   50 1
  52   26   51 1
  53   27   28 1
  54   27   52 1
  55   27   53 1
  56   28   29 1
  57   28   54 1
  58   28   55 1
  59   29   30 1
  60   29   31 1
  61   30   56 1
  62   30   57 1
  63   31   58 1
  64   31   59 1
  65   31   60 1

#	End of record

