#	Name: ASD01813667
#	Creating user name:	WinNT
#	Creation time:	15. 06. 2019 19:30

#	Modifying user name:	WinNT
#	Modification time:	15. 06. 2019 19:30

#	Program:	/corina/corina34_cracker 3.40 0067  02.08.2006

@<TRIPOS>MOLECULE
ASD01813667
  58   61    0    0    0
SMALL
NO_CHARGES


@<TRIPOS>ATOM
   1 C1            -0.0178     1.4608     0.0101 C.3     
   2 N2             0.0021    -0.0041     0.0020 N.am    
   3 C3            -0.5728    -0.8723     1.0358 C.3     
   4 C4            -0.3083    -2.2893     0.5920 C.ar    
   5 C5             0.3761    -2.2017    -0.6224 C.ar    
   6 C6             0.5448    -0.7745    -0.9565 C.2     
   7 O7             1.0977    -0.3553    -1.9546 O.2     
   8 C8            -0.6029    -3.5180     1.1362 C.ar    
   9 C9            -0.2201    -4.6752     0.4790 C.ar    
  10 C10            0.4584    -4.5997    -0.7247 C.ar    
  11 C11            0.7590    -3.3729    -1.2790 C.ar    
  12 C12            0.8717    -5.8641    -1.4330 C.3     
  13 C13           -0.2737    -6.3661    -2.2740 C.ar    
  14 C14           -1.2028    -7.2399    -1.7411 C.ar    
  15 C15           -0.4120    -5.9529    -3.5900 C.ar    
  16 C16           -1.4813    -6.4408    -4.3260 C.ar    
  17 C17           -2.3671    -7.3163    -3.7274 C.ar    
  18 N18           -2.2073    -7.6837    -2.4709 N.ar    
  19 C19           -0.7578     1.9676    -1.2295 C.3     
  20 C20            1.4176     1.9904    -0.0008 C.3     
  21 C21            1.3968     3.5202     0.0076 C.3     
  22 C22            0.6569     4.0270    -1.2319 C.3     
  23 C23           -0.7785     3.4974    -1.2210 C.3     
  24 O24           -2.0984     1.4730    -1.2193 O.3     
  25 C25           -0.5429    -6.0204     1.0765 C.3     
  26 C26           -3.5327    -7.8528    -4.5178 C.3     
  27 C27           -3.5122    -9.3822    -4.4823 C.3     
  28 C28           -1.3412    -3.6045     2.4471 C.3     
  29 H29           -0.5280     1.8123     0.9069 H       
  30 H30           -0.0895    -0.6838     1.9945 H       
  31 H31           -1.6459    -0.6991     1.1162 H       
  32 H32            1.2886    -3.3184    -2.2187 H       
  33 H33            1.7295    -5.6581    -2.0732 H       
  34 H34            1.1412    -6.6214    -0.6969 H       
  35 H35           -1.1046    -7.5631    -0.7153 H       
  36 H36            0.2959    -5.2671    -4.0315 H       
  37 H37           -1.6202    -6.1399    -5.3539 H       
  38 H38           -0.2476     1.6161    -2.1262 H       
  39 H39            1.9448     1.6293     0.8823 H       
  40 H40            1.9278     1.6388    -0.8976 H       
  41 H41            0.8867     3.8717     0.9044 H       
  42 H42            2.4194     3.8975    -0.0001 H       
  43 H43            0.6421     5.1169    -1.2259 H       
  44 H44            1.1670     3.6755    -2.1287 H       
  45 H45           -1.3057     3.8585    -2.1041 H       
  46 H46           -1.2887     3.8490    -0.3242 H       
  47 H47           -2.6276     1.7553    -1.9778 H       
  48 H48           -1.5159    -6.3542     0.7158 H       
  49 H49            0.2202    -6.7411     0.7827 H       
  50 H50           -0.5667    -5.9391     2.1632 H       
  51 H51           -4.4642    -7.4917    -4.0819 H       
  52 H52           -3.4589    -7.5123    -5.5506 H       
  53 H53           -2.5807    -9.7433    -4.9182 H       
  54 H54           -3.5860    -9.7227    -3.4494 H       
  55 H55           -4.3553    -9.7703    -5.0539 H       
  56 H56           -2.4143    -3.6344     2.2584 H       
  57 H57           -1.0398    -4.5094     2.9749 H       
  58 H58           -1.1035    -2.7324     3.0563 H       
@<TRIPOS>BOND
   1    1    2 1
   2    1   20 1
   3    1   19 1
   4    1   29 1
   5    2    3 1
   6    2    6 am
   7    3    4 1
   8    3   30 1
   9    3   31 1
  10    4    8 ar
  11    4    5 ar
  12    5    6 1
  13    5   11 ar
  14    6    7 2
  15    8    9 ar
  16    8   28 1
  17    9   10 ar
  18    9   25 1
  19   10   11 ar
  20   10   12 1
  21   11   32 1
  22   12   13 1
  23   12   33 1
  24   12   34 1
  25   13   15 ar
  26   13   14 ar
  27   14   18 ar
  28   14   35 1
  29   15   16 ar
  30   15   36 1
  31   16   17 ar
  32   16   37 1
  33   17   18 ar
  34   17   26 1
  35   19   23 1
  36   19   24 1
  37   19   38 1
  38   20   21 1
  39   20   39 1
  40   20   40 1
  41   21   22 1
  42   21   41 1
  43   21   42 1
  44   22   23 1
  45   22   43 1
  46   22   44 1
  47   23   45 1
  48   23   46 1
  49   24   47 1
  50   25   48 1
  51   25   49 1
  52   25   50 1
  53   26   27 1
  54   26   51 1
  55   26   52 1
  56   27   53 1
  57   27   54 1
  58   27   55 1
  59   28   56 1
  60   28   57 1
  61   28   58 1

#	End of record

