#	Name: ASD04910180
#	Creating user name:	WinNT
#	Creation time:	15. 06. 2019 20:55

#	Modifying user name:	WinNT
#	Modification time:	15. 06. 2019 20:55

#	Program:	/corina/corina34_cracker 3.40 0067  02.08.2006

@<TRIPOS>MOLECULE
ASD04910180
  38   37    0    0    0
SMALL
NO_CHARGES


@<TRIPOS>ATOM
   1 C1             1.1295    -1.6617    -1.9052 C.3     
   2 N2             2.3850    -0.9069    -1.9163 N.2     
   3 C3             3.0844    -0.6300    -0.6592 C.3     
   4 C4             2.8890    -0.4736    -3.0658 C.2     
   5 C5             2.0457    -0.1709    -4.1209 C.2     
   6 C6             0.6750    -0.2852    -3.9661 C.2     
   7 N7            -0.1316     0.6242    -4.5005 N.pl3   
   8 C8            -0.1892     1.9747    -3.9356 C.3     
   9 C9            -0.9638     0.2771    -5.6551 C.3     
  10 C10            2.6200     0.2830    -5.4382 C.3     
  11 C11            3.0433     1.7485    -5.5569 C.3     
  12 C12            4.1050     0.6500    -5.4725 C.3     
  13 H13            0.3026    -0.9883    -1.6796 H       
  14 H14            0.9708    -2.1173    -2.8827 H       
  15 H15            1.1810    -2.4413    -1.1451 H       
  16 H16            3.7842    -1.4383    -0.4471 H       
  17 H17            3.6300     0.3096    -0.7463 H       
  18 H18            2.3592    -0.5553     0.1512 H       
  19 H19            3.9569    -0.3573    -3.1775 H       
  20 H20            0.2615    -1.1139    -3.4107 H       
  21 H21            0.8161     2.3939    -3.8930 H       
  22 H22           -0.8193     2.6046    -4.5635 H       
  23 H23           -0.6072     1.9303    -2.9299 H       
  24 H24           -0.7865    -0.7623    -5.9315 H       
  25 H25           -2.0148     0.4106    -5.3987 H       
  26 H26           -0.7094     0.9246    -6.4942 H       
  27 H27            2.1981    -0.1923    -6.3237 H       
  28 H28            2.9002     2.2372    -6.5206 H       
  29 H29            2.9064     2.3843    -4.6822 H       
  30 H30            4.6665     0.5631    -4.5424 H       
  31 H31            4.6603     0.4160    -6.3808 H       
  32 P32           11.3363     9.2744     6.8211 P.3     
  33 F33           11.3589     7.6046     6.8119 F       
  34 F34           11.3136    10.9442     6.8303 F       
  35 F35           13.0060     9.2972     6.8053 F       
  36 F36           11.3203     9.2834     5.1512 F       
  37 F37            9.6665     9.2517     6.8369 F       
  38 F38           11.3522     9.2655     8.4910 F       
@<TRIPOS>BOND
   1    1    2 1
   2    1   13 1
   3    1   14 1
   4    1   15 1
   5    2    3 1
   6    2    4 2
   7    3   16 1
   8    3   17 1
   9    3   18 1
  10    4    5 1
  11    4   19 1
  12    5    6 2
  13    5   10 1
  14    6    7 1
  15    6   20 1
  16    7    8 1
  17    7    9 1
  18    8   21 1
  19    8   22 1
  20    8   23 1
  21    9   24 1
  22    9   25 1
  23    9   26 1
  24   10   11 1
  25   10   12 1
  26   10   27 1
  27   11   12 1
  28   11   28 1
  29   11   29 1
  30   12   30 1
  31   12   31 1
  32   32   33 1
  33   32   34 1
  34   32   35 1
  35   32   36 1
  36   32   37 1
  37   32   38 1

#	End of record

