#	Name: ASD01811242
#	Creating user name:	WinNT
#	Creation time:	15. 06. 2019 19:26

#	Modifying user name:	WinNT
#	Modification time:	15. 06. 2019 19:26

#	Program:	/corina/corina34_cracker 3.40 0067  02.08.2006

@<TRIPOS>MOLECULE
ASD01811242
  69   72    0    0    0
SMALL
NO_CHARGES


@<TRIPOS>ATOM
   1 C1             0.7328     1.4981     0.2977 C.ar    
   2 C2             1.0045     0.1320     0.2023 C.ar    
   3 C3             2.3976    -0.3552     0.2926 C.2     
   4 N4             2.9100    -1.1179    -0.6934 N.am    
   5 O5             3.0808    -0.0679     1.2560 O.2     
   6 C6             4.3184    -1.5352    -0.6620 C.3     
   7 C7            -0.0424    -0.7715     0.0221 C.ar    
   8 C8            -1.3459    -0.3072    -0.0611 C.ar    
   9 C9            -1.6059     1.0543     0.0345 C.ar    
  10 C10           -0.5687     1.9496     0.2194 C.ar    
  11 N11           -2.4003    -1.2100    -0.2419 N.am    
  12 C12            4.9810    -1.1344    -1.9838 C.3     
  13 C13            4.1786    -1.7173    -3.1494 C.3     
  14 C14            2.7584    -1.1474    -3.1287 C.3     
  15 C15            2.0692    -1.5530    -1.8170 C.3     
  16 C16            4.8466    -1.3535    -4.4503 C.ar    
  17 C17            4.4946    -2.0147    -5.6137 C.ar    
  18 C18            5.1018    -1.6865    -6.8080 C.ar    
  19 C19            6.0736    -0.6845    -6.8412 C.ar    
  20 C20            6.4240    -0.0213    -5.6635 C.ar    
  21 C21            5.8051    -0.3560    -4.4770 C.ar    
  22 C22           -2.1745    -2.4001    -0.8329 C.2     
  23 C23            6.7084    -0.3389    -8.0775 C.1     
  24 N24            7.2120    -0.0647    -9.0581 N.1     
  25 N25           -3.2029    -3.2350    -1.0813 N.am    
  26 O26           -1.0431    -2.7205    -1.1420 O.2     
  27 C27           -2.9576    -4.5286    -1.7236 C.3     
  28 C28           -4.2826    -5.2754    -1.8890 C.3     
  29 F29            4.1238    -3.1099    -3.0273 F       
  30 C30            1.8602     2.4790     0.4924 C.3     
  31 C31           -3.0239     1.5563    -0.0568 C.3     
  32 C32           -3.6811     1.4820     1.3229 C.3     
  33 C33           -4.0352    -6.6383    -2.5642 C.3     
  34 C34           -4.5800    -7.6703    -1.5469 C.3     
  35 C35           -5.5413    -6.8064    -0.6913 C.3     
  36 O36           -4.8610    -5.5363    -0.5992 O.3     
  37 H37            4.8273    -1.0420     0.1661 H       
  38 H38            4.3764    -2.6165    -0.5373 H       
  39 H39            0.1618    -1.8294    -0.0527 H       
  40 H40           -0.7770     3.0068     0.2933 H       
  41 H41           -3.2933    -0.9791     0.0581 H       
  42 H42            5.0032    -0.0477    -2.0648 H       
  43 H43            5.9991    -1.5227    -2.0128 H       
  44 H44            2.8015    -0.0605    -3.1989 H       
  45 H45            2.1946    -1.5449    -3.9726 H       
  46 H46            1.9445    -2.6355    -1.7893 H       
  47 H47            1.0947    -1.0690    -1.7515 H       
  48 H48            3.7430    -2.7898    -5.5865 H       
  49 H49            4.8263    -2.2037    -7.7153 H       
  50 H50            7.1752     0.7544    -5.6821 H       
  51 H51            6.0751     0.1561    -3.5652 H       
  52 H52           -4.1056    -2.9794    -0.8347 H       
  53 H53           -2.5062    -4.3683    -2.7027 H       
  54 H54           -2.2823    -5.1194    -1.1046 H       
  55 H55           -4.9695    -4.6820    -2.4925 H       
  56 H56            2.2895     2.7360    -0.4760 H       
  57 H57            1.4787     3.3806     0.9716 H       
  58 H58            2.6279     2.0297     1.1224 H       
  59 H59           -3.0219     2.5898    -0.4031 H       
  60 H60           -3.5834     0.9388    -0.7595 H       
  61 H61           -3.6831     0.4485     1.6692 H       
  62 H62           -3.1216     2.0996     2.0255 H       
  63 H63           -4.7067     1.8451     1.2568 H       
  64 H64           -4.5832    -6.7034    -3.5042 H       
  65 H65           -2.9694    -6.7934    -2.7313 H       
  66 H66           -5.1218    -8.4683    -2.0546 H       
  67 H67           -3.7742    -8.0767    -0.9357 H       
  68 H68           -6.5026    -6.6914    -1.1921 H       
  69 H69           -5.6728    -7.2441     0.2982 H       
@<TRIPOS>BOND
   1    1    2 ar
   2    1   30 1
   3    1   10 ar
   4    2    3 1
   5    2    7 ar
   6    3    4 am
   7    3    5 2
   8    4    6 1
   9    4   15 1
  10    6   12 1
  11    6   37 1
  12    6   38 1
  13    7    8 ar
  14    7   39 1
  15    8    9 ar
  16    8   11 1
  17    9   10 ar
  18    9   31 1
  19   10   40 1
  20   11   22 am
  21   11   41 1
  22   12   13 1
  23   12   42 1
  24   12   43 1
  25   13   14 1
  26   13   16 1
  27   13   29 1
  28   14   15 1
  29   14   44 1
  30   14   45 1
  31   15   46 1
  32   15   47 1
  33   16   17 ar
  34   16   21 ar
  35   17   18 ar
  36   17   48 1
  37   18   19 ar
  38   18   49 1
  39   19   20 ar
  40   19   23 1
  41   20   21 ar
  42   20   50 1
  43   21   51 1
  44   22   25 am
  45   22   26 2
  46   23   24 3
  47   25   27 1
  48   25   52 1
  49   27   28 1
  50   27   53 1
  51   27   54 1
  52   28   33 1
  53   28   36 1
  54   28   55 1
  55   30   56 1
  56   30   57 1
  57   30   58 1
  58   31   32 1
  59   31   59 1
  60   31   60 1
  61   32   61 1
  62   32   62 1
  63   32   63 1
  64   33   34 1
  65   33   64 1
  66   33   65 1
  67   34   35 1
  68   34   66 1
  69   34   67 1
  70   35   36 1
  71   35   68 1
  72   35   69 1

#	End of record

