#	Name: ASD00431296
#	Creating user name:	WinNT
#	Creation time:	15. 06. 2019 18:35

#	Modifying user name:	WinNT
#	Modification time:	15. 06. 2019 18:35

#	Program:	/corina/corina34_cracker 3.40 0067  02.08.2006

@<TRIPOS>MOLECULE
ASD00431296
  35   37    0    0    0
SMALL
NO_CHARGES


@<TRIPOS>ATOM
   1 S1            -2.9131     1.2901    -0.1197 S.3     
   2 C2            -2.3825    -0.3926    -0.1483 C.2     
   3 N3            -3.4403    -1.1433    -0.2521 N.2     
   4 N4            -4.5631    -0.5720    -0.3086 N.2     
   5 C5            -4.5817     0.7323    -0.2588 C.2     
   6 C6            -5.7800     1.5853    -0.3096 C.2     
   7 C7            -7.0508     1.1400    -0.4164 C.2     
   8 C8            -8.0076     2.1321    -0.4448 C.2     
   9 C9            -7.5336     3.3792    -0.3627 C.2     
  10 S10           -5.7802     3.3426    -0.2332 S.3     
  11 O11           -1.1003    -0.8263    -0.0756 O.3     
  12 C12           -0.8845    -2.1636     0.0406 C.ar    
  13 C13           -1.9544    -3.0245     0.2378 C.ar    
  14 C14           -1.7350    -4.3830     0.3558 C.ar    
  15 C15           -0.4449    -4.8866     0.2776 C.ar    
  16 C16            0.6249    -4.0260     0.0804 C.ar    
  17 C17            0.4051    -2.6681    -0.0438 C.ar    
  18 O18           -0.2289    -6.2239     0.3947 O.3     
  19 C19           -1.3571    -7.0370     0.7235 C.3     
  20 C20           -1.9879    -7.5776    -0.5613 C.3     
  21 C21           -0.9050    -8.2060     1.6008 C.3     
  22 H22           -7.2976     0.0902    -0.4752 H       
  23 H23           -9.0628     1.9175    -0.5277 H       
  24 H24           -8.1372     4.2748    -0.3703 H       
  25 H25           -2.9588    -2.6323     0.2994 H       
  26 H26           -2.5678    -5.0531     0.5094 H       
  27 H27            1.6294    -4.4182     0.0195 H       
  28 H28            1.2376    -1.9985    -0.2022 H       
  29 H29           -2.0905    -6.4391     1.2646 H       
  30 H30           -2.3100    -6.7447    -1.1864 H       
  31 H31           -1.2545    -8.1755    -1.1024 H       
  32 H32           -2.8484    -8.1978    -0.3106 H       
  33 H33           -0.4557    -7.8209     2.5162 H       
  34 H34           -1.7656    -8.8262     1.8516 H       
  35 H35           -0.1716    -8.8039     1.0597 H       
@<TRIPOS>BOND
   1    1    2 1
   2    1    5 1
   3    2    3 2
   4    2   11 1
   5    3    4 1
   6    4    5 2
   7    5    6 1
   8    6    7 2
   9    6   10 1
  10    7    8 1
  11    7   22 1
  12    8    9 2
  13    8   23 1
  14    9   10 1
  15    9   24 1
  16   11   12 1
  17   12   13 ar
  18   12   17 ar
  19   13   14 ar
  20   13   25 1
  21   14   15 ar
  22   14   26 1
  23   15   16 ar
  24   15   18 1
  25   16   17 ar
  26   16   27 1
  27   17   28 1
  28   18   19 1
  29   19   20 1
  30   19   21 1
  31   19   29 1
  32   20   30 1
  33   20   31 1
  34   20   32 1
  35   21   33 1
  36   21   34 1
  37   21   35 1

#	End of record

