#	Name: ASD01411098
#	Creating user name:	WinNT
#	Creation time:	15. 06. 2019 19:19

#	Modifying user name:	WinNT
#	Modification time:	15. 06. 2019 19:19

#	Program:	/corina/corina34_cracker 3.40 0067  02.08.2006

@<TRIPOS>MOLECULE
ASD01411098
  44   47    0    0    0
SMALL
NO_CHARGES


@<TRIPOS>ATOM
   1 C1            -0.0290     1.6813     0.0016 C.3     
   2 C2            -0.1955     0.1594     0.1196 C.3     
   3 O3             1.3632     2.0076    -0.0251 O.3     
   4 C4             0.7170    -0.3212     1.2200 C.2     
   5 C5             2.0382     1.8201     1.2251 C.3     
   6 C6             1.7291     0.4281     1.7237 C.2     
   7 C7             0.7228    -1.5755     1.9278 C.ar    
   8 C8             1.5431     2.8534     2.2391 C.3     
   9 C9             3.5472     1.9747     1.0254 C.3     
  10 N10            2.3749    -0.2688     2.7037 N.pl3   
  11 C11           -0.0826    -2.7318     1.8402 C.ar    
  12 C12            1.7913    -1.4954     2.8585 C.ar    
  13 C13            0.2308    -3.7799     2.7137 C.ar    
  14 C14            2.0736    -2.5588     3.7117 C.ar    
  15 C15            1.2732    -3.6870     3.6133 C.ar    
  16 C16            2.2269     2.7456     3.6123 C.3     
  17 C17            2.2482     4.2831     3.6347 C.3     
  18 C18            2.2189     4.2276     2.0981 C.3     
  19 C19           -1.1642    -2.8273     0.9066 C.1     
  20 N20           -2.0223    -2.9030     0.1660 N.1     
  21 C21            4.0301     0.9493     0.0323 C.2     
  22 O22            3.2477     0.1744    -0.4648 O.2     
  23 O23            5.3296     0.8969    -0.3001 O.3     
  24 C24            3.2053    -2.4864     4.7043 C.3     
  25 H25           -0.5012     2.0283    -0.9175 H       
  26 H26           -0.4995     2.1658     0.8572 H       
  27 H27           -1.2296    -0.0806     0.3665 H       
  28 H28            0.0797    -0.3160    -0.8219 H       
  29 H29            0.4558     2.9038     2.2955 H       
  30 H30            3.7633     2.9747     0.6494 H       
  31 H31            4.0568     1.8266     1.9775 H       
  32 H32            3.1336     0.0568     3.2129 H       
  33 H33           -0.3585    -4.6844     2.6829 H       
  34 H34            1.4730    -4.5244     4.2654 H       
  35 H35            1.5929     2.3065     4.3825 H       
  36 H36            3.2190     2.2958     3.5720 H       
  37 H37            1.3537     4.7258     4.0727 H       
  38 H38            3.1701     4.7012     4.0389 H       
  39 H39            3.2087     4.1829     1.6439 H       
  40 H40            1.5784     4.9848     1.6460 H       
  41 H41            5.5918     0.2223    -0.9413 H       
  42 H42            2.8379    -2.0762     5.6449 H       
  43 H43            3.6034    -3.4867     4.8750 H       
  44 H44            3.9931    -1.8441     4.3109 H       
@<TRIPOS>BOND
   1    1    2 1
   2    1    3 1
   3    1   25 1
   4    1   26 1
   5    2    4 1
   6    2   27 1
   7    2   28 1
   8    3    5 1
   9    4    6 2
  10    4    7 1
  11    5    8 1
  12    5    9 1
  13    5    6 1
  14    6   10 1
  15    7   11 ar
  16    7   12 ar
  17    8   16 1
  18    8   18 1
  19    8   29 1
  20    9   21 1
  21    9   30 1
  22    9   31 1
  23   10   12 1
  24   10   32 1
  25   11   13 ar
  26   11   19 1
  27   12   14 ar
  28   13   15 ar
  29   13   33 1
  30   14   15 ar
  31   14   24 1
  32   15   34 1
  33   16   17 1
  34   16   35 1
  35   16   36 1
  36   17   18 1
  37   17   37 1
  38   17   38 1
  39   18   39 1
  40   18   40 1
  41   19   20 3
  42   21   22 2
  43   21   23 1
  44   23   41 1
  45   24   42 1
  46   24   43 1
  47   24   44 1

#	End of record

