#	Name: ASD01150873
#	Creating user name:	WinNT
#	Creation time:	15. 06. 2019 19:05

#	Modifying user name:	WinNT
#	Modification time:	15. 06. 2019 19:05

#	Program:	/corina/corina34_cracker 3.40 0067  02.08.2006

@<TRIPOS>MOLECULE
ASD01150873
  53   56    0    0    0
SMALL
NO_CHARGES


@<TRIPOS>ATOM
   1 C1            -0.0179     1.4713     0.0101 C.ar    
   2 C2             0.0021    -0.0041     0.0020 C.2     
   3 N3            -1.1558    -0.6938     0.0094 N.am    
   4 O4             1.0631    -0.5976    -0.0113 O.2     
   5 C5            -1.1370    -2.0834     0.0017 C.2     
   6 N6            -0.0476    -2.8553    -0.0124 N.2     
   7 C7            -0.3944    -4.1264    -0.0160 C.2     
   8 N8            -1.7512    -4.2227    -0.0042 N.pl3   
   9 C9            -2.2487    -2.9175     0.0134 C.2     
  10 C10           -3.6021    -2.5261     0.0301 C.2     
  11 O11           -4.5757    -3.4621     0.0300 O.3     
  12 O12           -3.8940    -1.3439     0.0445 O.2     
  13 C13           -5.9257    -2.9939     0.0473 C.3     
  14 C14           -6.8803    -4.1896     0.0445 C.3     
  15 S15            0.7239    -5.4879    -0.0341 S.3     
  16 C16            2.3008    -4.5994    -0.0434 C.3     
  17 C17           -2.5054    -5.4048    -0.0037 C.ar    
  18 C18            1.1816     2.1884     0.0025 C.ar    
  19 C19            1.1586     3.5651     0.0102 C.ar    
  20 C20           -0.0555     4.2418     0.0255 C.ar    
  21 C21           -1.2508     3.5323     0.0335 C.ar    
  22 C22           -1.2366     2.1555     0.0196 C.ar    
  23 O23           -0.0739     5.5987     0.0330 O.3     
  24 C24           -3.2973    -5.7223     1.0910 C.ar    
  25 C25           -4.0409    -6.8873     1.0933 C.ar    
  26 C26           -3.9984    -7.7411     0.0033 C.ar    
  27 C27           -3.2046    -7.4248    -1.0973 C.ar    
  28 C28           -2.4643    -6.2549    -1.1007 C.ar    
  29 O29           -4.6252    -8.9302    -0.2389 O.3     
  30 C30           -4.5267    -9.1340    -1.6609 C.3     
  31 O31           -3.3344    -8.4152    -2.0278 O.3     
  32 C32           -1.3558     6.2301     0.0486 C.3     
  33 H33           -2.0023    -0.2203     0.0200 H       
  34 H34           -6.0922    -2.3982     0.9449 H       
  35 H35           -6.1089    -2.3806    -0.8349 H       
  36 H36           -6.7138    -4.7852    -0.8531 H       
  37 H37           -6.6971    -4.8029     0.9267 H       
  38 H38           -7.9100    -3.8324     0.0577 H       
  39 H39            3.1217    -5.3163    -0.0550 H       
  40 H40            2.3570    -3.9683    -0.9303 H       
  41 H41            2.3732    -3.9785     0.8496 H       
  42 H42            2.1254     1.6634    -0.0090 H       
  43 H43            2.0852     4.1200     0.0047 H       
  44 H44           -2.1921     4.0618     0.0458 H       
  45 H45           -2.1657     1.6050     0.0255 H       
  46 H46           -3.3323    -5.0585     1.9422 H       
  47 H47           -4.6559    -7.1327     1.9465 H       
  48 H48           -1.8487    -6.0077    -1.9529 H       
  49 H49           -4.4202   -10.1944    -1.8893 H       
  50 H50           -5.3966    -8.7173    -2.1686 H       
  51 H51           -1.9172     5.9344    -0.8376 H       
  52 H52           -1.9002     5.9248     0.9422 H       
  53 H53           -1.2276     7.3125     0.0533 H       
@<TRIPOS>BOND
   1    1    2 1
   2    1   18 ar
   3    1   22 ar
   4    2    3 am
   5    2    4 2
   6    3    5 1
   7    3   33 1
   8    5    6 1
   9    5    9 2
  10    6    7 2
  11    7    8 1
  12    7   15 1
  13    8    9 1
  14    8   17 1
  15    9   10 1
  16   10   11 1
  17   10   12 2
  18   11   13 1
  19   13   14 1
  20   13   34 1
  21   13   35 1
  22   14   36 1
  23   14   37 1
  24   14   38 1
  25   15   16 1
  26   16   39 1
  27   16   40 1
  28   16   41 1
  29   17   24 ar
  30   17   28 ar
  31   18   19 ar
  32   18   42 1
  33   19   20 ar
  34   19   43 1
  35   20   21 ar
  36   20   23 1
  37   21   22 ar
  38   21   44 1
  39   22   45 1
  40   23   32 1
  41   24   25 ar
  42   24   46 1
  43   25   26 ar
  44   25   47 1
  45   26   27 ar
  46   26   29 1
  47   27   28 ar
  48   27   31 1
  49   28   48 1
  50   29   30 1
  51   30   31 1
  52   30   49 1
  53   30   50 1
  54   32   51 1
  55   32   52 1
  56   32   53 1

#	End of record

