#	Name: ASD01910167
#	Creating user name:	WinNT
#	Creation time:	15. 06. 2019 19:55

#	Modifying user name:	WinNT
#	Modification time:	15. 06. 2019 19:55

#	Program:	/corina/corina34_cracker 3.40 0067  02.08.2006

@<TRIPOS>MOLECULE
ASD01910167
  47   49    0    0    0
SMALL
NO_CHARGES


@<TRIPOS>ATOM
   1 C1            -0.2183     1.3729     0.0956 C.ar    
   2 C2             0.0378     0.0355     0.3284 C.ar    
   3 C3             1.3452    -0.4348     0.3196 C.ar    
   4 C4             2.3940     0.4400     0.0762 C.ar    
   5 C5             2.1334     1.7829    -0.1578 C.ar    
   6 C6             0.8240     2.2469    -0.1471 C.ar    
   7 N7             3.1879     2.6682    -0.4031 N.am    
   8 C8             4.2622     2.2583    -1.1061 C.2     
   9 C9             5.3271     3.2185    -1.4525 C.ar    
  10 N10            1.6038    -1.7894     0.5565 N.am    
  11 C11            0.7262    -2.7252     0.1435 C.2     
  12 C12            5.2262     4.5534    -1.0539 C.ar    
  13 C13            6.2247     5.4455    -1.3808 C.ar    
  14 C14            7.3286     5.0247    -2.1036 C.ar    
  15 C15            7.4409     3.7079    -2.5044 C.ar    
  16 C16            6.4491     2.7952    -2.1786 C.ar    
  17 O17           -0.2406    -2.4020    -0.5137 O.2     
  18 O18            4.3536     1.0970    -1.4549 O.2     
  19 O19            6.5582     1.5013    -2.5713 O.3     
  20 C20            7.7230     1.1462    -3.3191 C.3     
  21 C21            0.9461    -4.1733     0.4983 C.3     
  22 C22           -0.1858    -5.0368    -0.0856 C.3     
  23 C23            0.4781    -6.0374    -1.0540 C.3     
  24 C24            1.9408    -6.1364    -0.5542 C.3     
  25 C25            2.2583    -4.6793    -0.1357 C.3     
  26 H26           -1.2357     1.7352     0.0988 H       
  27 H27           -0.7790    -0.6451     0.5178 H       
  28 H28            3.4111     0.0769     0.0692 H       
  29 H29            0.6205     3.2918    -0.3292 H       
  30 H30            3.1460     3.5773    -0.0673 H       
  31 H31            2.4147    -2.0550     1.0179 H       
  32 H32            4.3669     4.8861    -0.4907 H       
  33 H33            6.1457     6.4774    -1.0721 H       
  34 H34            8.1061     5.7306    -2.3557 H       
  35 H35            8.3044     3.3875    -3.0685 H       
  36 H36            7.7595     1.7346    -4.2359 H       
  37 H37            8.6129     1.3474    -2.7227 H       
  38 H38            7.6851     0.0860    -3.5690 H       
  39 H39            0.9844    -4.2904     1.5813 H       
  40 H40           -0.6962    -5.5737     0.7140 H       
  41 H41           -0.8941    -4.4085    -0.6255 H       
  42 H42           -0.0122    -7.0091    -0.9938 H       
  43 H43            0.4488    -5.6569    -2.0750 H       
  44 H44            2.0121    -6.8082     0.3012 H       
  45 H45            2.6024    -6.4605    -1.3575 H       
  46 H46            2.5165    -4.0794    -1.0084 H       
  47 H47            3.0672    -4.6598     0.5947 H       
@<TRIPOS>BOND
   1    1    2 ar
   2    1    6 ar
   3    1   26 1
   4    2    3 ar
   5    2   27 1
   6    3    4 ar
   7    3   10 1
   8    4    5 ar
   9    4   28 1
  10    5    6 ar
  11    5    7 1
  12    6   29 1
  13    7    8 am
  14    7   30 1
  15    8    9 1
  16    8   18 2
  17    9   12 ar
  18    9   16 ar
  19   10   11 am
  20   10   31 1
  21   11   17 2
  22   11   21 1
  23   12   13 ar
  24   12   32 1
  25   13   14 ar
  26   13   33 1
  27   14   15 ar
  28   14   34 1
  29   15   16 ar
  30   15   35 1
  31   16   19 1
  32   19   20 1
  33   20   36 1
  34   20   37 1
  35   20   38 1
  36   21   22 1
  37   21   25 1
  38   21   39 1
  39   22   23 1
  40   22   40 1
  41   22   41 1
  42   23   24 1
  43   23   42 1
  44   23   43 1
  45   24   25 1
  46   24   44 1
  47   24   45 1
  48   25   46 1
  49   25   47 1

#	End of record

