#	Name: ASD08170024
#	Creating user name:	WinNT
#	Creation time:	15. 06. 2019 21:17

#	Modifying user name:	WinNT
#	Modification time:	15. 06. 2019 21:17

#	Program:	/corina/corina34_cracker 3.40 0067  02.08.2006

@<TRIPOS>MOLECULE
ASD08170024
  46   48    0    0    0
SMALL
NO_CHARGES


@<TRIPOS>ATOM
   1 C1            -0.0167     1.3781     0.0096 C.ar    
   2 C2             0.0021    -0.0041     0.0020 C.ar    
   3 C3             1.2084    -0.6789    -0.0132 C.ar    
   4 C4             2.3960     0.0285    -0.0212 C.ar    
   5 C5             2.3773     1.4107    -0.0145 C.ar    
   6 C6             1.1709     2.0855     0.0021 C.ar    
   7 C7             3.7112    -0.7071    -0.0368 C.3     
   8 C8             4.1427    -0.9498    -1.4845 C.3     
   9 C9             5.4579    -1.6854    -1.5000 C.2     
  10 O10            5.9969    -1.9861    -0.4560 O.2     
  11 N11            6.0350    -2.0093    -2.6741 N.am    
  12 C12            7.2487    -2.6882    -2.6885 C.2     
  13 N13            7.9191    -3.0628    -1.6409 N.2     
  14 N14            9.0082    -3.6729    -1.8293 N.2     
  15 C15            9.3569    -3.8692    -3.0612 C.2     
  16 S16            8.1037    -3.1755    -4.0907 S.3     
  17 C17           10.6064    -4.5688    -3.5306 C.3     
  18 C18           10.3247    -6.0643    -3.6888 C.3     
  19 C19           11.5933    -6.7746    -4.1654 C.3     
  20 C20           11.3116    -8.2701    -4.3237 C.3     
  21 C21           12.5611    -8.9697    -4.7931 C.2     
  22 S22           13.0345    -9.2355    -6.4723 S.3     
  23 C23           14.4905   -10.0502    -5.8965 C.2     
  24 N24           14.4634   -10.0344    -4.5945 N.2     
  25 N25           13.4794    -9.4769    -4.0369 N.2     
  26 N26           15.4843   -10.6069    -6.6879 N.pl3   
  27 H27           -0.9592     1.9054     0.0170 H       
  28 H28           -0.9258    -0.5567     0.0083 H       
  29 H29            1.2231    -1.7588    -0.0184 H       
  30 H30            3.3051     1.9634    -0.0201 H       
  31 H31            1.1563     3.1654     0.0077 H       
  32 H32            4.4676    -0.1100     0.4726 H       
  33 H33            3.5986    -1.6635     0.4740 H       
  34 H34            3.3864    -1.5469    -1.9938 H       
  35 H35            4.2553     0.0066    -1.9952 H       
  36 H36            5.6039    -1.7689    -3.5091 H       
  37 H37           10.9165    -4.1540    -4.4897 H       
  38 H38           11.4007    -4.4242    -2.7983 H       
  39 H39           10.0146    -6.4791    -2.7297 H       
  40 H40            9.5304    -6.2089    -4.4212 H       
  41 H41           11.9034    -6.3598    -5.1245 H       
  42 H42           12.3876    -6.6300    -3.4331 H       
  43 H43           11.0014    -8.6849    -3.3646 H       
  44 H44           10.5173    -8.4147    -5.0560 H       
  45 H45           15.4134   -10.5676    -7.6545 H       
  46 H46           16.2502   -11.0354    -6.2748 H       
@<TRIPOS>BOND
   1    1    2 ar
   2    1    6 ar
   3    1   27 1
   4    2    3 ar
   5    2   28 1
   6    3    4 ar
   7    3   29 1
   8    4    5 ar
   9    4    7 1
  10    5    6 ar
  11    5   30 1
  12    6   31 1
  13    7    8 1
  14    7   32 1
  15    7   33 1
  16    8    9 1
  17    8   34 1
  18    8   35 1
  19    9   10 2
  20    9   11 am
  21   11   12 1
  22   11   36 1
  23   12   13 2
  24   12   16 1
  25   13   14 1
  26   14   15 2
  27   15   16 1
  28   15   17 1
  29   17   18 1
  30   17   37 1
  31   17   38 1
  32   18   19 1
  33   18   39 1
  34   18   40 1
  35   19   20 1
  36   19   41 1
  37   19   42 1
  38   20   21 1
  39   20   43 1
  40   20   44 1
  41   21   22 1
  42   21   25 2
  43   22   23 1
  44   23   24 2
  45   23   26 1
  46   24   25 1
  47   26   45 1
  48   26   46 1

#	End of record

