#	Name: ASD01730005
#	Creating user name:	WinNT
#	Creation time:	15. 06. 2019 19:23

#	Modifying user name:	WinNT
#	Modification time:	15. 06. 2019 19:23

#	Program:	/corina/corina34_cracker 3.40 0067  02.08.2006

@<TRIPOS>MOLECULE
ASD01730005
  32   33    0    0    0
SMALL
NO_CHARGES


@<TRIPOS>ATOM
   1 C1             0.1649     1.6919     0.0767 C.2     
   2 C2             0.3767     0.2018     0.1525 C.3     
   3 N3             1.1930     2.4974     0.0523 N.2     
   4 N4            -1.0999     2.1992     0.0281 N.pl3   
   5 S5             3.9094     2.9727     0.3122 S.3     
   6 C6             2.4510     1.9987     0.1901 C.2     
   7 N7             2.7443     0.7408     0.2507 N.2     
   8 C8             4.0409     0.4036     0.3891 C.ar    
   9 C9             4.8894     1.5146     0.4466 C.ar    
  10 C10            4.6120    -0.8841     0.4790 C.ar    
  11 C11            5.9679    -1.0362     0.6199 C.ar    
  12 C12            6.8023     0.0758     0.6765 C.ar    
  13 C13            6.2643     1.3454     0.5883 C.ar    
  14 O14            8.1449    -0.0866     0.8176 O.3     
  15 C15            8.6308    -1.4278     0.9016 C.3     
  16 F16            8.2887    -2.1217    -0.2641 F       
  17 F17           10.0225    -1.4116     1.0432 F       
  18 F18            8.0569    -2.0633     2.0080 F       
  19 C19           -1.3106     3.6480     0.0822 C.3     
  20 C20           -2.2480     1.2955    -0.0783 C.3     
  21 H21            0.9960    -0.0336     1.0180 H       
  22 H22           -0.5873    -0.2977     0.2487 H       
  23 H23            0.8746    -0.1409    -0.7546 H       
  24 H24            3.9765    -1.7563     0.4369 H       
  25 H25            6.3913    -2.0274     0.6879 H       
  26 H26            6.9115     2.2089     0.6318 H       
  27 H27           -1.3047     4.0540    -0.9293 H       
  28 H28           -2.2713     3.8581     0.5524 H       
  29 H29           -0.5127     4.1097     0.6637 H       
  30 H30           -2.6384     1.0852     0.9175 H       
  31 H31           -3.0251     1.7647    -0.6816 H       
  32 H32           -1.9347     0.3640    -0.5498 H       
@<TRIPOS>BOND
   1    1    2 1
   2    1    3 2
   3    1    4 1
   4    2   21 1
   5    2   22 1
   6    2   23 1
   7    3    6 1
   8    4   19 1
   9    4   20 1
  10    5    6 1
  11    5    9 1
  12    6    7 2
  13    7    8 1
  14    8    9 ar
  15    8   10 ar
  16    9   13 ar
  17   10   11 ar
  18   10   24 1
  19   11   12 ar
  20   11   25 1
  21   12   13 ar
  22   12   14 1
  23   13   26 1
  24   14   15 1
  25   15   16 1
  26   15   17 1
  27   15   18 1
  28   19   27 1
  29   19   28 1
  30   19   29 1
  31   20   30 1
  32   20   31 1
  33   20   32 1

#	End of record

