#	Name: ASD01915707
#	Creating user name:	WinNT
#	Creation time:	15. 06. 2019 20:06

#	Modifying user name:	WinNT
#	Modification time:	15. 06. 2019 20:06

#	Program:	/corina/corina34_cracker 3.40 0067  02.08.2006

@<TRIPOS>MOLECULE
ASD01915707
  43   46    0    0    0
SMALL
NO_CHARGES


@<TRIPOS>ATOM
   1 C1            -0.0086     1.4175     0.1000 C.2     
   2 N2             0.0286     0.0458    -0.0148 N.pl3   
   3 C3            -1.2048    -0.7397    -0.1432 C.3     
   4 C4            -2.3388    -0.0222     0.5871 C.3     
   5 N5            -2.4043     1.3988     0.2637 N.am    
   6 C6            -1.2833     2.1498     0.1399 C.2     
   7 C7             1.2863     1.8479     0.1724 C.2     
   8 C8             2.0605     0.6817     0.1074 C.2     
   9 N9             1.2441    -0.3409     0.0027 N.2     
  10 C10            3.5654     0.6135     0.1492 C.3     
  11 O11            4.0990     1.9339     0.2668 O.3     
  12 C12            5.4498     2.0501     0.3179 C.ar    
  13 O13           -1.3288     3.3630     0.0659 O.2     
  14 N14            6.2034     0.9646     0.2584 N.ar    
  15 C15            6.0283     3.3080     0.4264 C.ar    
  16 C16            7.4076     3.4128     0.4776 C.ar    
  17 C17            8.1625     2.2497     0.4180 C.ar    
  18 C18            7.5202     1.0326     0.3047 C.ar    
  19 C19           -3.6492     1.9979     0.0772 C.ar    
  20 N20           -4.2779     2.5386     1.1099 N.ar    
  21 C21           -4.2161     2.0271    -1.1925 C.ar    
  22 C22           -5.4546     2.6261    -1.3665 C.ar    
  23 C23           -6.0849     3.1766    -0.2616 C.ar    
  24 C24           -5.4600     3.1171     0.9759 C.ar    
  25 F25           -3.5679     1.4790    -2.2435 F       
  26 O26           -6.0711     3.6539     2.0624 O.3     
  27 C27           -5.3777     3.5614     3.3085 C.3     
  28 H28           -1.4606    -0.8456    -1.1975 H       
  29 H29           -1.0555    -1.7259     0.2963 H       
  30 H30           -3.2849    -0.4896     0.3138 H       
  31 H31           -2.1912    -0.1325     1.6614 H       
  32 H32            1.6369     2.8657     0.2603 H       
  33 H33            3.8785     0.0174     1.0063 H       
  34 H34            3.9338     0.1531    -0.7676 H       
  35 H35            5.4102     4.1926     0.4700 H       
  36 H36            7.8854     4.3777     0.5616 H       
  37 H37            9.2408     2.2965     0.4551 H       
  38 H38            8.1029     0.1245     0.2579 H       
  39 H39           -5.9176     2.6631    -2.3415 H       
  40 H40           -7.0499     3.6506    -0.3636 H       
  41 H41           -4.4184     4.0730     3.2294 H       
  42 H42           -5.9748     4.0281     4.0920 H       
  43 H43           -5.2111     2.5127     3.5546 H       
@<TRIPOS>BOND
   1    1    2 1
   2    1    7 2
   3    1    6 1
   4    2    3 1
   5    2    9 1
   6    3    4 1
   7    3   28 1
   8    3   29 1
   9    4    5 1
  10    4   30 1
  11    4   31 1
  12    5    6 am
  13    5   19 1
  14    6   13 2
  15    7    8 1
  16    7   32 1
  17    8    9 2
  18    8   10 1
  19   10   11 1
  20   10   33 1
  21   10   34 1
  22   11   12 1
  23   12   14 ar
  24   12   15 ar
  25   14   18 ar
  26   15   16 ar
  27   15   35 1
  28   16   17 ar
  29   16   36 1
  30   17   18 ar
  31   17   37 1
  32   18   38 1
  33   19   20 ar
  34   19   21 ar
  35   20   24 ar
  36   21   22 ar
  37   21   25 1
  38   22   23 ar
  39   22   39 1
  40   23   24 ar
  41   23   40 1
  42   24   26 1
  43   26   27 1
  44   27   41 1
  45   27   42 1
  46   27   43 1

#	End of record

