#	Name: ASD01811628
#	Creating user name:	WinNT
#	Creation time:	15. 06. 2019 19:27

#	Modifying user name:	WinNT
#	Modification time:	15. 06. 2019 19:27

#	Program:	/corina/corina34_cracker 3.40 0067  02.08.2006

@<TRIPOS>MOLECULE
ASD01811628
  58   63    0    0    0
SMALL
NO_CHARGES


@<TRIPOS>ATOM
   1 C1             0.3176     0.8853     0.0746 C.ar    
   2 C2             0.5169    -0.4637     0.3026 C.ar    
   3 C3             1.7905    -0.9559     0.5006 C.ar    
   4 C4             2.8860    -0.0967     0.4717 C.ar    
   5 C5             2.6735     1.2596     0.2404 C.ar    
   6 C6             1.4008     1.7462     0.0441 C.ar    
   7 N7             4.2490    -0.3498     0.6413 N.am    
   8 C8             4.9904     0.7699     0.5373 C.2     
   9 C9             4.0327     1.8989     0.2695 C.3     
  10 C10            4.3534     2.6071    -1.0493 C.3     
  11 N11            4.5805     4.0342    -0.7220 N.3     
  12 C12            5.0095     4.0613     0.7007 C.3     
  13 C13            4.1220     2.9748     1.3632 C.3     
  14 C14            5.6096     4.6169    -1.5934 C.3     
  15 C15            5.1728     4.7521    -3.0633 C.3     
  16 N16            5.8264     6.0791    -3.0322 N.3     
  17 C17            5.6462     6.1556    -1.5656 C.3     
  18 O18            6.1961     0.8521     0.6405 O.2     
  19 C19            4.8074    -1.6788     0.9025 C.3     
  20 C20            5.1327    -2.3529    -0.4054 C.ar    
  21 C21            6.3014    -2.0307    -1.0764 C.ar    
  22 C22            6.6036    -2.6473    -2.2762 C.ar    
  23 C23            5.7307    -3.5930    -2.8090 C.ar    
  24 C24            4.5575    -3.9123    -2.1294 C.ar    
  25 C25            4.2669    -3.2951    -0.9291 C.ar    
  26 F26            7.1462    -1.1128    -0.5579 F       
  27 C27            6.0496    -4.2582    -4.0975 C.2     
  28 C28            7.1931    -4.0349    -4.8888 C.2     
  29 N29            7.1150    -4.8052    -5.9415 N.2     
  30 N30            5.9286    -5.5447    -5.8646 N.pl3   
  31 C31            5.2911    -5.2013    -4.7273 C.2     
  32 C32            5.4630    -6.5261    -6.8475 C.3     
  33 H33           -0.6807     1.2658    -0.0837 H       
  34 H34           -0.3285    -1.1354     0.3262 H       
  35 H35            1.9383    -2.0107     0.6790 H       
  36 H36            1.2477     2.8003    -0.1346 H       
  37 H37            5.2518     2.1788    -1.4938 H       
  38 H38            3.5140     2.5113    -1.7379 H       
  39 H39            6.0645     3.8021     0.7889 H       
  40 H40            4.8146     5.0386     1.1423 H       
  41 H41            3.1340     3.3720     1.5962 H       
  42 H42            4.6008     2.5774     2.2581 H       
  43 H43            6.5868     4.1508    -1.4672 H       
  44 H44            5.6560     4.0400    -3.7322 H       
  45 H45            4.0921     4.7979    -3.1978 H       
  46 H46            6.8035     6.0066    -3.2732 H       
  47 H47            4.7040     6.6119    -1.2622 H       
  48 H48            6.5077     6.5649    -1.0381 H       
  49 H49            5.7159    -1.5808     1.4967 H       
  50 H50            4.0789    -2.2780     1.4488 H       
  51 H51            7.5143    -2.3960    -2.7995 H       
  52 H52            3.8778    -4.6447    -2.5391 H       
  53 H53            3.3575    -3.5430    -0.4020 H       
  54 H54            7.9945    -3.3465    -4.6650 H       
  55 H55            4.3476    -5.5965    -4.3808 H       
  56 H56            5.8433    -7.5130    -6.5838 H       
  57 H57            4.3732    -6.5463    -6.8527 H       
  58 H58            5.8260    -6.2494    -7.8373 H       
@<TRIPOS>BOND
   1    1    2 ar
   2    1    6 ar
   3    1   33 1
   4    2    3 ar
   5    2   34 1
   6    3    4 ar
   7    3   35 1
   8    4    5 ar
   9    4    7 1
  10    5    6 ar
  11    5    9 1
  12    6   36 1
  13    7    8 am
  14    7   19 1
  15    8    9 1
  16    8   18 2
  17    9   10 1
  18    9   13 1
  19   10   11 1
  20   10   37 1
  21   10   38 1
  22   11   12 1
  23   11   14 1
  24   12   13 1
  25   12   39 1
  26   12   40 1
  27   13   41 1
  28   13   42 1
  29   14   15 1
  30   14   17 1
  31   14   43 1
  32   15   16 1
  33   15   44 1
  34   15   45 1
  35   16   17 1
  36   16   46 1
  37   17   47 1
  38   17   48 1
  39   19   20 1
  40   19   49 1
  41   19   50 1
  42   20   21 ar
  43   20   25 ar
  44   21   22 ar
  45   21   26 1
  46   22   23 ar
  47   22   51 1
  48   23   24 ar
  49   23   27 1
  50   24   25 ar
  51   24   52 1
  52   25   53 1
  53   27   28 1
  54   27   31 2
  55   28   29 2
  56   28   54 1
  57   29   30 1
  58   30   31 1
  59   30   32 1
  60   31   55 1
  61   32   56 1
  62   32   57 1
  63   32   58 1

#	End of record

