#	Name: ASD02039461
#	Creating user name:	WinNT
#	Creation time:	15. 06. 2019 20:18

#	Modifying user name:	WinNT
#	Modification time:	15. 06. 2019 20:18

#	Program:	/corina/corina34_cracker 3.40 0067  02.08.2006

@<TRIPOS>MOLECULE
ASD02039461
  48   51    0    0    0
SMALL
NO_CHARGES


@<TRIPOS>ATOM
   1 C1             0.1325     1.1901     0.0648 C.ar    
   2 C2             0.4141    -0.1577     0.1957 C.ar    
   3 C3             1.2579     2.1907     0.0057 C.3     
   4 N4             1.7446     2.2975    -1.3719 N.am    
   5 C5             1.2829     3.2757    -2.1759 C.2     
   6 C6             0.2175     4.1765    -1.7027 C.2     
   7 C7            -0.4146     5.1349    -2.4397 C.2     
   8 N8            -0.3183     4.2003    -0.4556 N.2     
   9 C9            -1.2329     5.1253    -0.4078 C.2     
  10 N10           -1.3186     5.7257    -1.6234 N.pl3   
  11 O11            1.7457     3.4148    -3.2920 O.2     
  12 C12           -2.2261     6.8173    -1.9857 C.3     
  13 C13            2.7333     1.3409    -1.8757 C.3     
  14 C14           -0.6128    -1.0825     0.2497 C.ar    
  15 C15           -2.2163     0.6950     0.0311 C.ar    
  16 C16           -1.1765     1.6206    -0.0177 C.ar    
  17 C17           -3.6249     1.1519    -0.0575 C.ar    
  18 C18           -4.4937     0.9873     1.0231 C.ar    
  19 N19           -5.7462     1.3941     0.9440 N.ar    
  20 C20           -6.2244     1.9660    -0.1446 C.ar    
  21 C21           -5.4262     2.1638    -1.2558 C.ar    
  22 C22           -4.1023     1.7590    -1.2211 C.ar    
  23 C23           -1.9278    -0.6633     0.1730 C.ar    
  24 F24           -2.9308    -1.5669     0.2249 F       
  25 C25            2.3121     0.6513    -3.1841 C.3     
  26 C26            3.7732     0.7992    -3.6403 C.3     
  27 C27            3.8700     1.9952    -2.6785 C.3     
  28 F28           -4.0483     0.4063     2.1585 F       
  29 H29            1.4402    -0.4894     0.2556 H       
  30 H30            0.8971     3.1634     0.3400 H       
  31 H31            2.0705     1.8623     0.6537 H       
  32 H32           -0.2291     5.3762    -3.4759 H       
  33 H33           -1.8294     5.3733     0.4577 H       
  34 H34           -1.7419     7.7734    -1.7867 H       
  35 H35           -2.4725     6.7484    -3.0452 H       
  36 H36           -3.1389     6.7422    -1.3947 H       
  37 H37            3.0808     0.6482    -1.1092 H       
  38 H38           -0.3870    -2.1337     0.3516 H       
  39 H39           -1.3938     2.6729    -0.1270 H       
  40 H40           -7.2561     2.2844    -0.1681 H       
  41 H41           -5.8300     2.6332    -2.1407 H       
  42 H42           -3.4572     1.9022    -2.0754 H       
  43 H43            1.9991    -0.3843    -3.0507 H       
  44 H44            1.6081     1.2342    -3.7779 H       
  45 H45            4.4065    -0.0415    -3.3568 H       
  46 H46            3.8772     1.0736    -4.6901 H       
  47 H47            3.5919     2.9456    -3.1342 H       
  48 H48            4.8147     2.0447    -2.1370 H       
@<TRIPOS>BOND
   1    1    2 ar
   2    1    3 1
   3    1   16 ar
   4    2   14 ar
   5    2   29 1
   6    3    4 1
   7    3   30 1
   8    3   31 1
   9    4    5 am
  10    4   13 1
  11    5    6 1
  12    5   11 2
  13    6    7 2
  14    6    8 1
  15    7   10 1
  16    7   32 1
  17    8    9 2
  18    9   10 1
  19    9   33 1
  20   10   12 1
  21   12   34 1
  22   12   35 1
  23   12   36 1
  24   13   25 1
  25   13   27 1
  26   13   37 1
  27   14   23 ar
  28   14   38 1
  29   15   16 ar
  30   15   17 1
  31   15   23 ar
  32   16   39 1
  33   17   18 ar
  34   17   22 ar
  35   18   19 ar
  36   18   28 1
  37   19   20 ar
  38   20   21 ar
  39   20   40 1
  40   21   22 ar
  41   21   41 1
  42   22   42 1
  43   23   24 1
  44   25   26 1
  45   25   43 1
  46   25   44 1
  47   26   27 1
  48   26   45 1
  49   26   46 1
  50   27   47 1
  51   27   48 1

#	End of record

