#	Name: ASD01941028
#	Creating user name:	WinNT
#	Creation time:	15. 06. 2019 20:13

#	Modifying user name:	WinNT
#	Modification time:	15. 06. 2019 20:13

#	Program:	/corina/corina34_cracker 3.40 0067  02.08.2006

@<TRIPOS>MOLECULE
ASD01941028
  50   54    0    0    0
SMALL
NO_CHARGES


@<TRIPOS>ATOM
   1 N1             0.2699     1.9510    -1.5541 N.am    
   2 C2             0.6100     0.6518    -1.5739 C.2     
   3 N3            -0.2808    -0.3347    -1.3769 N.am    
   4 C4            -1.6024    -0.0535    -1.1423 C.2     
   5 C5            -2.0088     1.2812    -1.1114 C.2     
   6 C6            -1.0079     2.3280    -1.3251 C.2     
   7 N7            -2.5112    -1.0421    -0.9423 N.am    
   8 C8            -3.8071    -0.7714    -0.7125 C.2     
   9 C9            -4.2890     0.5384    -0.6669 C.2     
  10 C10           -3.4127     1.5963    -0.8622 C.2     
  11 C11            0.1464    -1.6688    -1.4121 C.ar    
  12 C12            0.3482    -2.3027    -2.6308 C.ar    
  13 C13            0.7697    -3.6176    -2.6622 C.ar    
  14 C14            0.9906    -4.3027    -1.4816 C.ar    
  15 C15            0.7905    -3.6741    -0.2663 C.ar    
  16 C16            0.3742    -2.3578    -0.2283 C.ar    
  17 C17           -2.0682    -2.4381    -0.9785 C.3     
  18 O18           -4.5847    -1.6961    -0.5393 O.2     
  19 N19           -3.8539     2.9039    -0.8238 N.pl3   
  20 C20           -3.4544     3.7467     0.2192 C.ar    
  21 C21           -2.7316     3.2358     1.2883 C.ar    
  22 C22           -2.3383     4.0703     2.3171 C.ar    
  23 C23           -2.6641     5.4139     2.2835 C.ar    
  24 C24           -3.3846     5.9279     1.2198 C.ar    
  25 C25           -3.7759     5.0998     0.1843 C.ar    
  26 O26            1.7712     0.3563    -1.7789 O.2     
  27 C27            1.2969     2.9716    -1.7775 C.3     
  28 O28           -1.3192     3.5044    -1.3059 O.2     
  29 C29            1.9799     2.9989    -3.1463 C.3     
  30 C30            0.9764     4.0909    -2.7701 C.3     
  31 F31           -4.4793     5.6015    -0.8544 F       
  32 I32           -2.0662     6.6737     3.8469 I       
  33 H33           -5.3360     0.7266    -0.4806 H       
  34 H34            0.1754    -1.7683    -3.5532 H       
  35 H35            0.9265    -4.1114    -3.6099 H       
  36 H36            1.3199    -5.3310    -1.5087 H       
  37 H37            0.9636    -4.2119     0.6542 H       
  38 H38            0.2184    -1.8672     0.7211 H       
  39 H39           -1.6456    -2.7103    -0.0113 H       
  40 H40           -2.9186    -3.0836    -1.1981 H       
  41 H41           -1.3108    -2.5590    -1.7529 H       
  42 H42           -4.4409     3.2383    -1.5199 H       
  43 H43           -2.4770     2.1866     1.3163 H       
  44 H44           -1.7759     3.6726     3.1488 H       
  45 H45           -3.6376     6.9776     1.1964 H       
  46 H46            1.9021     3.2278    -0.9078 H       
  47 H47            3.0343     3.2734    -3.1772 H       
  48 H48            1.6652     2.2575    -3.8806 H       
  49 H49            0.0015     4.0679    -3.2571 H       
  50 H50            1.3707     5.0838    -2.5536 H       
@<TRIPOS>BOND
   1    1    2 am
   2    1   27 1
   3    1    6 am
   4    2    3 am
   5    2   26 2
   6    3    4 1
   7    3   11 1
   8    4    5 2
   9    4    7 1
  10    5    6 1
  11    5   10 1
  12    6   28 2
  13    7    8 am
  14    7   17 1
  15    8    9 1
  16    8   18 2
  17    9   10 2
  18    9   33 1
  19   10   19 1
  20   11   12 ar
  21   11   16 ar
  22   12   13 ar
  23   12   34 1
  24   13   14 ar
  25   13   35 1
  26   14   15 ar
  27   14   36 1
  28   15   16 ar
  29   15   37 1
  30   16   38 1
  31   17   39 1
  32   17   40 1
  33   17   41 1
  34   19   20 1
  35   19   42 1
  36   20   21 ar
  37   20   25 ar
  38   21   22 ar
  39   21   43 1
  40   22   23 ar
  41   22   44 1
  42   23   24 ar
  43   23   32 1
  44   24   25 ar
  45   24   45 1
  46   25   31 1
  47   27   29 1
  48   27   30 1
  49   27   46 1
  50   29   30 1
  51   29   47 1
  52   29   48 1
  53   30   49 1
  54   30   50 1

#	End of record

