#	Name: ASD00172051
#	Creating user name:	WinNT
#	Creation time:	15. 06. 2019 18:33

#	Modifying user name:	WinNT
#	Modification time:	15. 06. 2019 18:33

#	Program:	/corina/corina34_cracker 3.40 0067  02.08.2006

@<TRIPOS>MOLECULE
ASD00172051
  40   42    0    0    0
SMALL
NO_CHARGES


@<TRIPOS>ATOM
   1 C1            -0.0226     1.4346     0.1003 C.ar    
   2 C2             0.0093     0.0519     0.0815 C.ar    
   3 C3            -1.1715    -0.6664     0.0664 C.ar    
   4 C4            -2.3843    -0.0030     0.0701 C.ar    
   5 C5            -2.4168     1.3789     0.0889 C.ar    
   6 C6            -1.2365     2.0979     0.1093 C.ar    
   7 Br7            1.5925     2.4178     0.1217 Br      
   8 C8            -3.6715    -0.7866     0.0531 C.3     
   9 C9            -4.1138    -1.0720     1.4897 C.3     
  10 C10           -3.0748    -1.9069     2.2117 C.2     
  11 N11           -3.6976    -3.0542     2.5462 N.am    
  12 C12           -4.9724    -3.0603     2.1402 C.2     
  13 N13           -5.3140    -1.9261     1.5025 N.am    
  14 O14           -5.7363    -3.9870     2.3263 O.2     
  15 C15           -6.6243    -1.6030     0.9323 C.3     
  16 C16           -4.3713     0.2352     2.2418 C.3     
  17 O17           -1.9229    -1.6054     2.4400 O.2     
  18 C18           -3.0851    -4.1113     3.2340 C.ar    
  19 C19           -3.8388    -5.2015     3.6467 C.ar    
  20 C20           -3.2326    -6.2426     4.3249 C.ar    
  21 C21           -1.8757    -6.1983     4.5927 C.ar    
  22 C22           -1.1224    -5.1126     4.1823 C.ar    
  23 C23           -1.7230    -4.0720     3.4984 C.ar    
  24 Cl24           0.5797    -5.0605     4.5201 Cl      
  25 Cl25          -4.1745    -7.6063     4.8413 Cl      
  26 H26            0.9568    -0.4665     0.0782 H       
  27 H27           -1.1466    -1.7460     0.0513 H       
  28 H28           -3.3645     1.8967     0.0918 H       
  29 H29           -1.2619     3.1775     0.1241 H       
  30 H30           -4.4423    -0.2081    -0.4562 H       
  31 H31           -3.5166    -1.7284    -0.4733 H       
  32 H32           -7.3085    -2.4348     1.1001 H       
  33 H33           -7.0179    -0.7065     1.4113 H       
  34 H34           -6.5213    -1.4275    -0.1385 H       
  35 H35           -5.1558     0.7974     1.7352 H       
  36 H36           -4.6849     0.0120     3.2616 H       
  37 H37           -3.4566     0.8277     2.2644 H       
  38 H38           -4.8979    -5.2362     3.4385 H       
  39 H39           -1.4040    -7.0122     5.1232 H       
  40 H40           -1.1345    -3.2249     3.1780 H       
@<TRIPOS>BOND
   1    1    2 ar
   2    1    7 1
   3    1    6 ar
   4    2    3 ar
   5    2   26 1
   6    3    4 ar
   7    3   27 1
   8    4    5 ar
   9    4    8 1
  10    5    6 ar
  11    5   28 1
  12    6   29 1
  13    8    9 1
  14    8   30 1
  15    8   31 1
  16    9   10 1
  17    9   16 1
  18    9   13 1
  19   10   11 am
  20   10   17 2
  21   11   12 am
  22   11   18 1
  23   12   13 am
  24   12   14 2
  25   13   15 1
  26   15   32 1
  27   15   33 1
  28   15   34 1
  29   16   35 1
  30   16   36 1
  31   16   37 1
  32   18   19 ar
  33   18   23 ar
  34   19   20 ar
  35   19   38 1
  36   20   21 ar
  37   20   25 1
  38   21   22 ar
  39   21   39 1
  40   22   23 ar
  41   22   24 1
  42   23   40 1

#	End of record

