#	Name: ASD03450006
#	Creating user name:	WinNT
#	Creation time:	15. 06. 2019 20:42

#	Modifying user name:	WinNT
#	Modification time:	15. 06. 2019 20:42

#	Program:	/corina/corina34_cracker 3.40 0067  02.08.2006

@<TRIPOS>MOLECULE
ASD03450006
  85   87    0    0    0
SMALL
NO_CHARGES


@<TRIPOS>ATOM
   1 P1            -1.5306     2.3366    -2.9053 P.3     
   2 P2            -2.0734     2.1657    -5.8141 P.3     
   3 C3            -4.0180     6.0922    -9.0862 C.3     
   4 C4            -4.0635     4.6005    -9.2953 C.2     
   5 O5            -3.4993     4.1041   -10.2472 O.2     
   6 C6            -4.6854    -1.8066    -7.7084 C.3     
   7 O7            -3.5357    -2.3442    -7.0518 O.3     
   8 C8            -4.7256    -0.2905    -7.5066 C.3     
   9 O9            -3.6035     0.3071    -8.1593 O.3     
  10 C10           -6.0193     0.2699    -8.1033 C.3     
  11 O11           -7.1420    -0.2827    -7.4132 O.3     
  12 C12           -6.0243     1.7941    -7.9511 C.3     
  13 O13           -6.0158     2.1359    -6.5636 O.3     
  14 C14           -4.7757     2.3679    -8.6278 C.3     
  15 N15           -4.7314     3.8181    -8.4245 N.am    
  16 O16           -2.3178     4.3507     3.5848 O.3     
  17 C17           -3.5300     1.7265    -8.0109 C.3     
  18 O18           -3.4616     2.0575    -6.6224 O.3     
  19 C19           -4.0383     4.5366     1.8583 C.3     
  20 N20           -5.4679     4.2327     1.7581 N.am    
  21 O21           -0.9174     0.9906    -2.8527 O.2     
  22 O22           -1.3416     0.8834    -5.9168 O.2     
  23 C23           -6.2862     4.5316     2.7834 C.2     
  24 C24           -3.3724     3.6439     2.9288 C.3     
  25 O25           -5.8292     5.0518     3.7829 O.2     
  26 O26           -0.3735     3.4553    -2.8660 O.3     
  27 O27           -1.1774     3.3467    -6.4422 O.3     
  28 C28           -2.8069     2.4519     2.1247 C.3     
  29 N29           -7.6035     4.2633     2.7181 N.am    
  30 O30           -2.3773     2.4878    -4.2662 O.3     
  31 O31           -3.4089     1.2286     2.5527 O.3     
  32 C32           -8.1259     3.6871     1.6167 C.2     
  33 C33           -3.1980     2.7654     0.6635 C.3     
  34 N34           -8.5718     1.5496    -4.0179 N.am    
  35 O35           -9.3178     3.4444     1.5566 O.2     
  36 O36           -3.3650     4.1995     0.6258 O.3     
  37 C37           -7.2761     3.3673     0.5305 C.2     
  38 C38           -2.0826     2.3339    -0.2908 C.3     
  39 O39           -2.5080     2.5308    -1.6407 O.3     
  40 C40           -5.9594     3.6525     0.6205 C.2     
  41 C41           -7.3169     2.3247    -6.0035 C.3     
  42 O42           -6.3949     1.1519    -4.1748 O.2     
  43 C43           -7.3935     1.6332    -4.6667 C.2     
  44 O44          -10.5800     2.2899    -2.5051 O.2     
  45 C45           -7.5810     3.8205    -5.8199 C.3     
  46 O46          -10.0926     1.1317    -0.6872 O.3     
  47 C47           -8.6260     0.9833    -2.6678 C.3     
  48 C48           -9.8378     1.5163    -1.9478 C.2     
  49 C49           -8.7158    -0.5414    -2.7576 C.3     
  50 H50           -3.4369     6.5535    -9.8848 H       
  51 H51           -5.0320     6.4918    -9.0973 H       
  52 H52           -3.5520     6.3103    -8.1253 H       
  53 H53           -4.6328    -2.0300    -8.7740 H       
  54 H54           -5.5862    -2.2532    -7.2876 H       
  55 H55           -3.4459    -3.3031    -7.1382 H       
  56 H56           -4.6889    -0.0645    -6.4409 H       
  57 H57           -6.0763     0.0082    -9.1599 H       
  58 H58           -7.1992    -1.2467    -7.4637 H       
  59 H59           -6.9173     2.2046    -8.4223 H       
  60 H60           -4.8076     2.1506    -9.6955 H       
  61 H61           -5.1827     4.2151    -7.6632 H       
  62 H62           -1.8649     3.8367     4.2672 H       
  63 H63           -2.6401     2.0994    -8.5179 H       
  64 H64           -3.8909     5.5898     2.0973 H       
  65 H65           -4.1107     3.3021     3.6541 H       
  66 H66           -0.7034     4.3638    -2.8973 H       
  67 H67           -1.5956     4.2180    -6.4088 H       
  68 H68           -1.7232     2.4002     2.2295 H       
  69 H69           -8.1793     4.4850     3.4666 H       
  70 H70           -3.2455     1.0136     3.4812 H       
  71 H71           -4.1328     2.2676     0.4057 H       
  72 H72           -9.3840     1.8644    -4.4447 H       
  73 H73           -7.6763     2.9055    -0.3600 H       
  74 H74           -1.1904     2.9303    -0.1003 H       
  75 H75           -1.8558     1.2797    -0.1315 H       
  76 H76           -5.2966     3.4201    -0.1999 H       
  77 H77           -8.0658     1.9032    -6.6741 H       
  78 H78           -7.5255     4.3207    -6.7867 H       
  79 H79           -8.5734     3.9645    -5.3927 H       
  80 H80           -6.8321     4.2420    -5.1493 H       
  81 H81          -10.8815     1.5004    -0.2667 H       
  82 H82           -7.7259     1.2626    -2.1202 H       
  83 H83           -9.5691    -0.8194    -3.3763 H       
  84 H84           -7.8013    -0.9337    -3.2025 H       
  85 H85           -8.8410    -0.9575    -1.7579 H       
@<TRIPOS>BOND
   1    1   21 2
   2    1   26 1
   3    1   30 1
   4    1   39 1
   5    2   18 1
   6    2   22 2
   7    2   27 1
   8    2   30 1
   9    3    4 1
  10    3   50 1
  11    3   51 1
  12    3   52 1
  13    4    5 2
  14    4   15 am
  15    6    7 1
  16    6    8 1
  17    6   53 1
  18    6   54 1
  19    7   55 1
  20    8    9 1
  21    8   10 1
  22    8   56 1
  23    9   17 1
  24   10   11 1
  25   10   12 1
  26   10   57 1
  27   11   58 1
  28   12   13 1
  29   12   14 1
  30   12   59 1
  31   13   41 1
  32   14   15 1
  33   14   17 1
  34   14   60 1
  35   15   61 1
  36   16   24 1
  37   16   62 1
  38   17   18 1
  39   17   63 1
  40   19   20 1
  41   19   24 1
  42   19   36 1
  43   19   64 1
  44   20   23 am
  45   20   40 1
  46   23   25 2
  47   23   29 am
  48   24   28 1
  49   24   65 1
  50   26   66 1
  51   27   67 1
  52   28   31 1
  53   28   33 1
  54   28   68 1
  55   29   32 am
  56   29   69 1
  57   31   70 1
  58   32   35 2
  59   32   37 1
  60   33   36 1
  61   33   38 1
  62   33   71 1
  63   34   43 am
  64   34   47 1
  65   34   72 1
  66   37   40 2
  67   37   73 1
  68   38   39 1
  69   38   74 1
  70   38   75 1
  71   40   76 1
  72   41   43 1
  73   41   45 1
  74   41   77 1
  75   42   43 2
  76   44   48 2
  77   45   78 1
  78   45   79 1
  79   45   80 1
  80   46   48 1
  81   46   81 1
  82   47   48 1
  83   47   49 1
  84   47   82 1
  85   49   83 1
  86   49   84 1
  87   49   85 1

#	End of record

