#	Name: ASD01411124
#	Creating user name:	WinNT
#	Creation time:	15. 06. 2019 19:19

#	Modifying user name:	WinNT
#	Modification time:	15. 06. 2019 19:19

#	Program:	/corina/corina34_cracker 3.40 0067  02.08.2006

@<TRIPOS>MOLECULE
ASD01411124
  95   99    0    0    0
SMALL
NO_CHARGES


@<TRIPOS>ATOM
   1 C1            -0.5814     2.3350    -0.5291 C.ar    
   2 C2            -0.4672     1.0034    -0.9104 C.ar    
   3 C3            -1.5358     0.1421    -0.7652 C.ar    
   4 C4            -2.7340     0.6012    -0.2363 C.ar    
   5 C5            -2.8558     1.9445     0.1506 C.ar    
   6 C6            -1.7666     2.8070     0.0049 C.ar    
   7 O7             0.4774     3.1752    -0.6764 O.3     
   8 C8             0.8465     3.5206    -1.9365 C.ar    
   9 N9            -3.8132    -0.2693    -0.0903 N.am    
  10 C10           -4.0384    -0.8706     1.0947 C.2     
  11 C11           -3.1967    -0.5139     2.2927 C.3     
  12 O12           -4.9184    -1.6989     1.1968 O.2     
  13 C13           -3.9709    -0.8329     3.5732 C.3     
  14 C14           -1.9001    -1.3257     2.2651 C.3     
  15 C15           -1.0455    -0.9635     3.4814 C.3     
  16 C16           -1.8198    -1.2825     4.7619 C.3     
  17 C17           -3.1164    -0.4707     4.7895 C.3     
  18 C18           -0.9652    -0.9203     5.9782 C.3     
  19 N19            0.1129     3.1259    -2.9635 N.ar    
  20 C20           -4.7024    -0.5303    -1.2249 C.3     
  21 C21           -4.5890     0.6129    -2.2353 C.3     
  22 C22            1.9868     4.2888    -2.1310 C.ar    
  23 C23            2.3551     4.6359    -3.4189 C.ar    
  24 C24            1.5611     4.1974    -4.4768 C.ar    
  25 C25            0.4327     3.4375    -4.2049 C.ar    
  26 C26           -4.3007    -1.8455    -1.8956 C.3     
  27 O27           -5.0894     1.8169    -1.6504 O.3     
  28 O28           -4.4965    -2.9259    -0.9811 O.3     
  29 C29           -5.0286     2.9524    -2.5159 C.3     
  30 C30           -4.1493    -4.2066    -1.5115 C.3     
  31 N31            1.8947     4.5241    -5.7963 N.3     
  32 C32            0.9223     3.9587    -6.7403 C.3     
  33 C33            1.3953     4.2104    -8.1738 C.3     
  34 C34            1.5387     5.7177    -8.4015 C.3     
  35 C35            2.5198     6.2900    -7.3747 C.3     
  36 C36            2.0142     5.9780    -5.9643 C.3     
  37 N37            2.0483     5.9631    -9.7573 N.3     
  38 C38            2.0866     7.4015   -10.0530 C.3     
  39 C39            3.3718     5.3526    -9.9407 C.3     
  40 C40            2.5958     7.8260   -11.4319 C.3     
  41 C41            1.1061     7.9339   -11.0999 C.3     
  42 C42           -4.1244     2.4415     0.7129 C.2     
  43 O43           -5.0955     1.7125     0.7590 O.2     
  44 O44           -4.2074     3.7044     1.1757 O.3     
  45 C45            2.8129     4.7395    -0.9539 C.3     
  46 F46            3.9000     5.4936    -1.4085 F       
  47 F47            2.0249     5.5228    -0.1038 F       
  48 F48            3.2806     3.6204    -0.2567 F       
  49 H49            0.4627     0.6407    -1.3229 H       
  50 H50           -1.4395    -0.8913    -1.0641 H       
  51 H51           -1.8526     3.8421     0.3008 H       
  52 H52           -2.9600     0.5498     2.2667 H       
  53 H53           -4.8946    -0.2546     3.5929 H       
  54 H54           -4.2076    -1.8966     3.5992 H       
  55 H55           -2.1368    -2.3894     2.2911 H       
  56 H56           -1.3485    -1.0984     1.3528 H       
  57 H57           -0.1218    -1.5418     3.4617 H       
  58 H58           -0.8089     0.1002     3.4554 H       
  59 H59           -2.0565    -2.3462     4.7879 H       
  60 H60           -2.8797     0.5930     4.7636 H       
  61 H61           -3.6679    -0.6980     5.7018 H       
  62 H62           -0.7286     0.1434     5.9522 H       
  63 H63           -1.5168    -1.1476     6.8904 H       
  64 H64           -0.0415    -1.4987     5.9585 H       
  65 H65           -5.7310    -0.6021    -0.8714 H       
  66 H66           -3.5438     0.7506    -2.5124 H       
  67 H67           -5.1717     0.3714    -3.1242 H       
  68 H68            3.2368     5.2328    -3.5999 H       
  69 H69           -0.1883     3.0935    -5.0187 H       
  70 H70           -4.9151    -2.0038    -2.7819 H       
  71 H71           -3.2507    -1.8000    -2.1848 H       
  72 H72           -3.9926     3.1387    -2.7988 H       
  73 H73           -5.6205     2.7594    -3.4106 H       
  74 H74           -5.4265     3.8254    -1.9984 H       
  75 H75           -3.0962    -4.2101    -1.7927 H       
  76 H76           -4.3264    -4.9726    -0.7566 H       
  77 H77           -4.7606    -4.4139    -2.3898 H       
  78 H78            0.8329     2.8857    -6.5705 H       
  79 H79           -0.0479     4.4321    -6.5896 H       
  80 H80            2.3590     3.7255    -8.3295 H       
  81 H81            0.6656     3.8043    -8.8744 H       
  82 H82            0.5672     6.1979    -8.2841 H       
  83 H83            3.5012     5.8379    -7.5178 H       
  84 H84            2.5935     7.3698    -7.5043 H       
  85 H85            1.0389     6.4420    -5.8172 H       
  86 H86            2.7179     6.3717    -5.2309 H       
  87 H87            2.3220     8.0490    -9.2083 H       
  88 H88            3.3003     4.2763    -9.7837 H       
  89 H89            3.7256     5.5494   -10.9527 H       
  90 H90            4.0714     5.7790    -9.2218 H       
  91 H91            3.1658     8.7529   -11.4945 H       
  92 H92            2.9023     7.0379   -12.1197 H       
  93 H93            0.4327     7.2168   -11.5693 H       
  94 H94            0.6962     8.9317   -10.9441 H       
  95 H95           -5.0601     3.9851     1.5351 H       
@<TRIPOS>BOND
   1    1    2 ar
   2    1    7 1
   3    1    6 ar
   4    2    3 ar
   5    2   49 1
   6    3    4 ar
   7    3   50 1
   8    4    5 ar
   9    4    9 1
  10    5    6 ar
  11    5   42 1
  12    6   51 1
  13    7    8 1
  14    8   22 ar
  15    8   19 ar
  16    9   10 am
  17    9   20 1
  18   10   12 2
  19   10   11 1
  20   11   13 1
  21   11   14 1
  22   11   52 1
  23   13   17 1
  24   13   53 1
  25   13   54 1
  26   14   15 1
  27   14   55 1
  28   14   56 1
  29   15   16 1
  30   15   57 1
  31   15   58 1
  32   16   17 1
  33   16   18 1
  34   16   59 1
  35   17   60 1
  36   17   61 1
  37   18   62 1
  38   18   63 1
  39   18   64 1
  40   19   25 ar
  41   20   21 1
  42   20   26 1
  43   20   65 1
  44   21   27 1
  45   21   66 1
  46   21   67 1
  47   22   23 ar
  48   22   45 1
  49   23   24 ar
  50   23   68 1
  51   24   25 ar
  52   24   31 1
  53   25   69 1
  54   26   28 1
  55   26   70 1
  56   26   71 1
  57   27   29 1
  58   28   30 1
  59   29   72 1
  60   29   73 1
  61   29   74 1
  62   30   75 1
  63   30   76 1
  64   30   77 1
  65   31   32 1
  66   31   36 1
  67   32   33 1
  68   32   78 1
  69   32   79 1
  70   33   34 1
  71   33   80 1
  72   33   81 1
  73   34   35 1
  74   34   37 1
  75   34   82 1
  76   35   36 1
  77   35   83 1
  78   35   84 1
  79   36   85 1
  80   36   86 1
  81   37   38 1
  82   37   39 1
  83   38   40 1
  84   38   41 1
  85   38   87 1
  86   39   88 1
  87   39   89 1
  88   39   90 1
  89   40   41 1
  90   40   91 1
  91   40   92 1
  92   41   93 1
  93   41   94 1
  94   42   43 2
  95   42   44 1
  96   44   95 1
  97   45   46 1
  98   45   47 1
  99   45   48 1

#	End of record

