#	Name: ASD01880252
#	Creating user name:	WinNT
#	Creation time:	15. 06. 2019 19:40

#	Modifying user name:	WinNT
#	Modification time:	15. 06. 2019 19:40

#	Program:	/corina/corina34_cracker 3.40 0067  02.08.2006

@<TRIPOS>MOLECULE
ASD01880252
  47   50    0    0    0
SMALL
NO_CHARGES


@<TRIPOS>ATOM
   1 C1             0.1218     0.0066    -1.1510 C.3     
   2 N2             0.7620    -0.8154    -0.1155 N.3     
   3 C3             2.2111    -0.9150    -0.3345 C.3     
   4 C4             2.8386     0.4783    -0.2200 C.3     
   5 N5             2.1320     1.3858    -1.1368 N.pl3   
   6 C6             0.6636     1.4377    -1.0700 C.3     
   7 C7             0.1828    -2.0707    -0.0502 C.ar    
   8 C8             2.8296     2.1695    -2.0371 C.2     
   9 C9             3.5930     1.5751    -3.0590 C.2     
  10 C10            4.2767     2.3271    -3.9418 C.2     
  11 N11            4.2637     3.6903    -3.8905 N.pl3   
  12 C12            3.5444     4.3475    -2.9261 C.2     
  13 C13            2.7818     3.5662    -1.9487 C.2     
  14 C14            4.8669     4.6534    -4.6613 C.2     
  15 C15            4.5064     5.8503    -4.1561 C.2     
  16 N16            3.7043     5.6461    -3.1042 N.2     
  17 C17            5.7641     4.4169    -5.8488 C.3     
  18 C18            2.0168     4.2130    -0.9254 C.1     
  19 N19            1.4100     4.7261    -0.1136 N.1     
  20 N20            0.6377    -2.9478     0.8325 N.ar    
  21 C21            0.1064    -4.1559     0.9207 C.ar    
  22 C22           -0.9376    -4.4988     0.0759 C.ar    
  23 C23           -1.3889    -3.5573    -0.8356 C.ar    
  24 N24           -0.8170    -2.3650    -0.8683 N.ar    
  25 C25            7.2255     4.4395    -5.3965 C.3     
  26 C26            8.1363     4.1994    -6.6022 C.3     
  27 H27            0.3415    -0.4104    -2.1338 H       
  28 H28           -0.9566     0.0165    -0.9925 H       
  29 H29            2.6480    -1.5735     0.4162 H       
  30 H30            2.4018    -1.3191    -1.3287 H       
  31 H31            2.7399     0.8414     0.8030 H       
  32 H32            3.8925     0.4289    -0.4938 H       
  33 H33            0.2795     2.0226    -1.9057 H       
  34 H34            0.3558     1.8930    -0.1287 H       
  35 H35            3.6313     0.4985    -3.1360 H       
  36 H36            4.8525     1.8370    -4.7130 H       
  37 H37            4.8139     6.8132    -4.5363 H       
  38 H38            5.5352     3.4466    -6.2896 H       
  39 H39            5.6007     5.1999    -6.5893 H       
  40 H40            0.4817    -4.8667     1.6421 H       
  41 H41           -1.3893    -5.4785     0.1266 H       
  42 H42           -2.2003    -3.7929    -1.5083 H       
  43 H43            7.4544     5.4098    -4.9558 H       
  44 H44            7.3888     3.6565    -4.6561 H       
  45 H45            7.9074     3.2291    -7.0429 H       
  46 H46            7.9730     4.9825    -7.3426 H       
  47 H47            9.1775     4.2156    -6.2799 H       
@<TRIPOS>BOND
   1    1    2 1
   2    1    6 1
   3    1   27 1
   4    1   28 1
   5    2    3 1
   6    2    7 1
   7    3    4 1
   8    3   29 1
   9    3   30 1
  10    4    5 1
  11    4   31 1
  12    4   32 1
  13    5    6 1
  14    5    8 1
  15    6   33 1
  16    6   34 1
  17    7   20 ar
  18    7   24 ar
  19    8    9 1
  20    8   13 2
  21    9   10 2
  22    9   35 1
  23   10   11 1
  24   10   36 1
  25   11   12 1
  26   11   14 1
  27   12   13 1
  28   12   16 2
  29   13   18 1
  30   14   15 2
  31   14   17 1
  32   15   16 1
  33   15   37 1
  34   17   25 1
  35   17   38 1
  36   17   39 1
  37   18   19 3
  38   20   21 ar
  39   21   22 ar
  40   21   40 1
  41   22   23 ar
  42   22   41 1
  43   23   24 ar
  44   23   42 1
  45   25   26 1
  46   25   43 1
  47   25   44 1
  48   26   45 1
  49   26   46 1
  50   26   47 1

#	End of record

