#	Name: ASD05790121
#	Creating user name:	WinNT
#	Creation time:	15. 06. 2019 21:03

#	Modifying user name:	WinNT
#	Modification time:	15. 06. 2019 21:03

#	Program:	/corina/corina34_cracker 3.40 0067  02.08.2006

@<TRIPOS>MOLECULE
ASD05790121
  87   93    0    0    0
SMALL
NO_CHARGES


@<TRIPOS>ATOM
   1 C1             1.1944    -1.2966    -1.6223 C.3     
   2 C2             1.2881    -2.7282    -2.1033 C.2     
   3 C3             2.0867    -3.0089    -3.3550 C.3     
   4 C4             3.4811    -2.3873    -3.2067 C.3     
   5 C5             3.3356    -0.8983    -2.8545 C.3     
   6 C6             2.6145    -0.7313    -1.5224 C.3     
   7 C7             4.2308    -2.5552    -4.5305 C.3     
   8 C8             3.5327    -1.7814    -5.6620 C.3     
   9 C9             3.4789    -0.3237    -5.2484 C.3     
  10 C10            2.5726    -0.2428    -3.9839 C.3     
  11 C11            2.7387     0.6266    -6.1870 C.3     
  12 C12            2.4099     1.8067    -5.2669 C.2     
  13 C13            2.2930     1.2526    -3.8575 C.3     
  14 O14            0.7402    -3.6216    -1.5033 O.2     
  15 C15            3.6611     1.1769    -7.2772 C.3     
  16 C16            2.9203     2.3012    -8.0021 C.3     
  17 C17            2.5877     3.4578    -7.0746 C.3     
  18 C18            2.3253     3.0386    -5.6605 C.2     
  19 O19            3.6885     4.4057    -7.0898 O.3     
  20 C20            3.3728     5.3146    -8.1331 C.3     
  21 C21            1.8677     5.6161    -7.8777 C.3     
  22 C22            1.3406     4.2028    -7.6217 C.3     
  23 C23            4.0943     6.6410    -8.1975 C.3     
  24 C24            3.5847     7.3792    -9.4478 C.3     
  25 C25            2.0682     7.5568    -9.4143 C.3     
  26 N26            1.3916     6.2852    -9.0808 N.am    
  27 C27            0.3996     5.7787    -9.8397 C.2     
  28 O28           -0.4009     5.0037    -9.3550 O.2     
  29 O29            0.2957     6.1316   -11.1348 O.3     
  30 C30           -0.7971     5.5472   -11.8916 C.3     
  31 C31           -0.7534     6.0543   -13.3100 C.ar    
  32 C32           -0.0298     5.3683   -14.2673 C.ar    
  33 C33           -1.4417     7.2024   -13.6551 C.ar    
  34 C34           -1.4017     7.6676   -14.9562 C.ar    
  35 C35           -0.6730     6.9849   -15.9122 C.ar    
  36 C36            0.0103     5.8334   -15.5685 C.ar    
  37 C37            4.7240    -0.2623    -2.7617 C.3     
  38 C38            1.9467     4.0938    -4.6534 C.3     
  39 C39            4.2478     8.7561    -9.5204 C.3     
  40 C40            0.8560     3.5622    -8.9239 C.3     
  41 H41            0.6132    -0.7076    -2.3319 H       
  42 H42            0.7175    -1.2683    -0.6426 H       
  43 H43            2.1803    -4.0859    -3.4942 H       
  44 H44            1.5817    -2.5708    -4.2159 H       
  45 H45            4.0244    -2.8979    -2.4115 H       
  46 H46            2.5654     0.3274    -1.2677 H       
  47 H47            3.1622    -1.2641    -0.7451 H       
  48 H48            5.2482    -2.1811    -4.4157 H       
  49 H49            4.2667    -3.6134    -4.7898 H       
  50 H50            4.1012    -1.8835    -6.5863 H       
  51 H51            2.5219    -2.1638    -5.8035 H       
  52 H52            4.4801     0.0450    -5.0257 H       
  53 H53            1.6416    -0.7810    -4.1617 H       
  54 H54            1.8384     0.1684    -6.5964 H       
  55 H55            1.2877     1.4170    -3.4696 H       
  56 H56            3.0309     1.7206    -3.2058 H       
  57 H57            4.5727     1.5681    -6.8254 H       
  58 H58            3.9100     0.3848    -7.9833 H       
  59 H59            3.5443     2.6687    -8.8167 H       
  60 H60            1.9947     1.9041    -8.4188 H       
  61 H61            3.4787     4.8102    -9.0935 H       
  62 H62            1.7374     6.2450    -6.9969 H       
  63 H63            0.5435     4.2175    -6.8783 H       
  64 H64            3.8736     7.2269    -7.3053 H       
  65 H65            5.1687     6.4752    -8.2770 H       
  66 H66            3.8567     6.8070   -10.3348 H       
  67 H67            1.8122     8.3056    -8.6646 H       
  68 H68            1.7263     7.8985   -10.3912 H       
  69 H69           -0.6999     4.4616   -11.8907 H       
  70 H70           -1.7462     5.8275   -11.4346 H       
  71 H71            0.5046     4.4690   -13.9987 H       
  72 H72           -2.0110     7.7358   -12.9082 H       
  73 H73           -1.9400     8.5642   -15.2259 H       
  74 H74           -0.6420     7.3481   -16.9288 H       
  75 H75            0.5796     5.3000   -16.3153 H       
  76 H76            5.2845    -0.4791    -3.6710 H       
  77 H77            4.6224     0.8168    -2.6461 H       
  78 H78            5.2543    -0.6714    -1.9017 H       
  79 H79            0.8628     4.2075    -4.6364 H       
  80 H80            2.2961     3.7948    -3.6652 H       
  81 H81            2.4073     5.0421    -4.9301 H       
  82 H82            5.3294     8.6357    -9.5807 H       
  83 H83            3.8912     9.2850   -10.4042 H       
  84 H84            3.9952     9.3285    -8.6278 H       
  85 H85            1.1332     4.1963    -9.7660 H       
  86 H86            1.3175     2.5816    -9.0402 H       
  87 H87           -0.2280     3.4522    -8.8933 H       
@<TRIPOS>BOND
   1    1    2 1
   2    1    6 1
   3    1   41 1
   4    1   42 1
   5    2    3 1
   6    2   14 2
   7    3    4 1
   8    3   43 1
   9    3   44 1
  10    4    5 1
  11    4    7 1
  12    4   45 1
  13    5    6 1
  14    5   37 1
  15    5   10 1
  16    6   46 1
  17    6   47 1
  18    7    8 1
  19    7   48 1
  20    7   49 1
  21    8    9 1
  22    8   50 1
  23    8   51 1
  24    9   10 1
  25    9   11 1
  26    9   52 1
  27   10   13 1
  28   10   53 1
  29   11   12 1
  30   11   15 1
  31   11   54 1
  32   12   13 1
  33   12   18 2
  34   13   55 1
  35   13   56 1
  36   15   16 1
  37   15   57 1
  38   15   58 1
  39   16   17 1
  40   16   59 1
  41   16   60 1
  42   17   18 1
  43   17   19 1
  44   17   22 1
  45   18   38 1
  46   19   20 1
  47   20   21 1
  48   20   23 1
  49   20   61 1
  50   21   22 1
  51   21   26 1
  52   21   62 1
  53   22   40 1
  54   22   63 1
  55   23   24 1
  56   23   64 1
  57   23   65 1
  58   24   25 1
  59   24   39 1
  60   24   66 1
  61   25   26 1
  62   25   67 1
  63   25   68 1
  64   26   27 am
  65   27   28 2
  66   27   29 1
  67   29   30 1
  68   30   31 1
  69   30   69 1
  70   30   70 1
  71   31   32 ar
  72   31   33 ar
  73   32   36 ar
  74   32   71 1
  75   33   34 ar
  76   33   72 1
  77   34   35 ar
  78   34   73 1
  79   35   36 ar
  80   35   74 1
  81   36   75 1
  82   37   76 1
  83   37   77 1
  84   37   78 1
  85   38   79 1
  86   38   80 1
  87   38   81 1
  88   39   82 1
  89   39   83 1
  90   39   84 1
  91   40   85 1
  92   40   86 1
  93   40   87 1

#	End of record

