#	Name: ASD07300445
#	Creating user name:	WinNT
#	Creation time:	15. 06. 2019 21:09

#	Modifying user name:	WinNT
#	Modification time:	15. 06. 2019 21:09

#	Program:	/corina/corina34_cracker 3.40 0067  02.08.2006

@<TRIPOS>MOLECULE
ASD07300445
  50   52    0    0    0
SMALL
NO_CHARGES


@<TRIPOS>ATOM
   1 N1             0.1018     1.3252     0.8575 N.pl3   
   2 C2             0.0911    -0.0560     0.6357 C.ar    
   3 C3             0.0136    -0.9318     1.7107 C.ar    
   4 C4             0.0027    -2.2951     1.4908 C.ar    
   5 C5             0.0690    -2.7898     0.1965 C.ar    
   6 C6             0.1468    -1.9157    -0.8779 C.ar    
   7 C7             0.1521    -0.5520    -0.6601 C.ar    
   8 O8             0.0581    -4.1325    -0.0193 O.3     
   9 C9            -1.1220    -4.7842     0.0931 C.2     
  10 N10           -2.2791    -4.2114     0.3012 N.2     
  11 C11           -3.2526    -5.1576     0.3608 C.ar    
  12 C12           -2.6295    -6.4028     0.1731 C.ar    
  13 N13           -1.2820    -6.1358     0.0002 N.pl3   
  14 C14           -4.6342    -5.1030     0.5580 C.ar    
  15 C15           -5.3703    -6.2668     0.5665 C.ar    
  16 C16           -4.7503    -7.4933     0.3807 C.ar    
  17 C17           -3.3863    -7.5644     0.1850 C.ar    
  18 C18           -0.2244    -7.1217    -0.2356 C.3     
  19 O19            0.3094    -7.5565     1.0166 O.3     
  20 C20            1.3537    -8.5247     0.8986 C.3     
  21 C21            1.8468    -8.9155     2.2932 C.3     
  22 Si22           3.2084   -10.1778     2.1393 Si      
  23 C23            4.6194    -9.4533     1.1621 C.3     
  24 C24            3.8088   -10.6537     3.8375 C.3     
  25 C25            2.5584   -11.6887     1.2644 C.3     
  26 H26            0.0551     1.6715     1.7624 H       
  27 H27            0.1599     1.9366     0.1067 H       
  28 H28           -0.0376    -0.5468     2.7184 H       
  29 H29           -0.0572    -2.9763     2.3267 H       
  30 H30            0.1987    -2.3017    -1.8853 H       
  31 H31            0.2082     0.1284    -1.4968 H       
  32 H32           -5.1236    -4.1513     0.7038 H       
  33 H33           -6.4386    -6.2241     0.7194 H       
  34 H34           -5.3388    -8.3988     0.3898 H       
  35 H35           -2.9094    -8.5227     0.0412 H       
  36 H36           -0.6374    -7.9766    -0.7710 H       
  37 H37            0.5684    -6.6687    -0.8309 H       
  38 H38            0.9734    -9.4087     0.3867 H       
  39 H39            2.1793    -8.1008     0.3269 H       
  40 H40            2.2271    -8.0315     2.8051 H       
  41 H41            1.0213    -9.3395     2.8649 H       
  42 H42            4.9996    -8.5692     1.6740 H       
  43 H43            5.4160   -10.1918     1.0721 H       
  44 H44            4.2681    -9.1748     0.1686 H       
  45 H45            2.9833   -11.0776     4.4092 H       
  46 H46            4.6054   -11.3922     3.7474 H       
  47 H47            4.1891    -9.7697     4.3493 H       
  48 H48            2.2071   -11.4103     0.2708 H       
  49 H49            3.3550   -12.4273     1.1744 H       
  50 H50            1.7329   -12.1127     1.8361 H       
@<TRIPOS>BOND
   1    1    2 1
   2    1   26 1
   3    1   27 1
   4    2    3 ar
   5    2    7 ar
   6    3    4 ar
   7    3   28 1
   8    4    5 ar
   9    4   29 1
  10    5    6 ar
  11    5    8 1
  12    6    7 ar
  13    6   30 1
  14    7   31 1
  15    8    9 1
  16    9   10 2
  17    9   13 1
  18   10   11 1
  19   11   12 ar
  20   11   14 ar
  21   12   13 1
  22   12   17 ar
  23   13   18 1
  24   14   15 ar
  25   14   32 1
  26   15   16 ar
  27   15   33 1
  28   16   17 ar
  29   16   34 1
  30   17   35 1
  31   18   19 1
  32   18   36 1
  33   18   37 1
  34   19   20 1
  35   20   21 1
  36   20   38 1
  37   20   39 1
  38   21   22 1
  39   21   40 1
  40   21   41 1
  41   22   23 1
  42   22   24 1
  43   22   25 1
  44   23   42 1
  45   23   43 1
  46   23   44 1
  47   24   45 1
  48   24   46 1
  49   24   47 1
  50   25   48 1
  51   25   49 1
  52   25   50 1

#	End of record

