#	Name: ASD00170931
#	Creating user name:	WinNT
#	Creation time:	15. 06. 2019 18:32

#	Modifying user name:	WinNT
#	Modification time:	15. 06. 2019 18:32

#	Program:	/corina/corina34_cracker 3.40 0067  02.08.2006

@<TRIPOS>MOLECULE
ASD00170931
  55   58    0    0    0
SMALL
NO_CHARGES


@<TRIPOS>ATOM
   1 C1             3.1022     1.4608    -3.6755 C.ar    
   2 C2             3.1301     0.0773    -3.6915 C.ar    
   3 C3             3.3217    -0.6253    -2.5201 C.ar    
   4 C4             3.4878     0.0623    -1.3167 C.ar    
   5 C5             3.4586     1.4575    -1.3074 C.ar    
   6 C6             3.2661     2.1483    -2.4862 C.ar    
   7 C7             3.6933    -0.6848    -0.0565 C.2     
   8 O8             3.9334    -0.0842     0.9751 O.2     
   9 C9             3.6080    -2.1448    -0.0498 C.2     
  10 C10            4.7517    -3.0164    -0.2184 C.2     
  11 C11            4.4384    -4.3019    -0.1772 C.2     
  12 S12            2.7154    -4.5194     0.0718 S.3     
  13 C13            2.4330    -2.8393     0.1234 C.2     
  14 N14            1.1957    -2.2562     0.3069 N.pl3   
  15 C15            6.1570    -2.5111    -0.4209 C.3     
  16 N16            6.7298    -2.1244     0.8754 N.3     
  17 C17            8.1690    -1.8521     0.7550 C.3     
  18 C18            8.7102    -1.3770     2.1055 C.3     
  19 N19            8.4552    -2.4070     3.1222 N.3     
  20 C20            7.0161    -2.6792     3.2426 C.3     
  21 C21            6.4748    -3.1543     1.8921 C.3     
  22 C22            8.9999    -2.0393     4.3547 C.ar    
  23 C23            8.8680    -2.8798     5.4525 C.ar    
  24 C24            9.4078    -2.5131     6.6699 C.ar    
  25 C25           10.0788    -1.3108     6.7964 C.ar    
  26 C26           10.2120    -0.4715     5.7052 C.ar    
  27 C27            9.6798    -0.8346     4.4839 C.ar    
  28 N28            9.2673    -3.4079     7.8404 N.pl3   
  29 O29            8.6760    -4.4669     7.7299 O.2     
  30 O30            9.7430    -3.0852     8.9143 O.2     
  31 C31            3.2348     3.6549    -2.4782 C.3     
  32 F32            4.5291     4.1493    -2.6723 F       
  33 F33            2.4029     4.1096    -3.5070 F       
  34 F34            2.7435     4.1047    -1.2480 F       
  35 H35            2.9563     2.0063    -4.5961 H       
  36 H36            3.0011    -0.4534    -4.6232 H       
  37 H37            3.3429    -1.7050    -2.5339 H       
  38 H38            3.5861     1.9953    -0.3796 H       
  39 H39            5.1484    -5.1089    -0.2828 H       
  40 H40            0.3990    -2.8086     0.3380 H       
  41 H41            1.1228    -1.2939     0.4048 H       
  42 H42            6.7653    -3.2980    -0.8667 H       
  43 H43            6.1400    -1.6456    -1.0833 H       
  44 H44            8.6875    -2.7629     0.4554 H       
  45 H45            8.3311    -1.0776     0.0054 H       
  46 H46            9.7832    -1.2022     2.0260 H       
  47 H47            8.2109    -0.4515     2.3921 H       
  48 H48            6.8540    -3.4537     3.9922 H       
  49 H49            6.4976    -1.7685     3.5422 H       
  50 H50            5.4019    -3.3291     1.9716 H       
  51 H51            6.9742    -4.0798     1.6055 H       
  52 H52            8.3437    -3.8189     5.3545 H       
  53 H53           10.4996    -1.0263     7.7495 H       
  54 H54           10.7364     0.4671     5.8075 H       
  55 H55            9.7841    -0.1787     3.6322 H       
@<TRIPOS>BOND
   1    1    2 ar
   2    1    6 ar
   3    1   35 1
   4    2    3 ar
   5    2   36 1
   6    3    4 ar
   7    3   37 1
   8    4    5 ar
   9    4    7 1
  10    5    6 ar
  11    5   38 1
  12    6   31 1
  13    7    8 2
  14    7    9 1
  15    9   10 1
  16    9   13 2
  17   10   11 2
  18   10   15 1
  19   11   12 1
  20   11   39 1
  21   12   13 1
  22   13   14 1
  23   14   40 1
  24   14   41 1
  25   15   16 1
  26   15   42 1
  27   15   43 1
  28   16   17 1
  29   16   21 1
  30   17   18 1
  31   17   44 1
  32   17   45 1
  33   18   19 1
  34   18   46 1
  35   18   47 1
  36   19   20 1
  37   19   22 1
  38   20   21 1
  39   20   48 1
  40   20   49 1
  41   21   50 1
  42   21   51 1
  43   22   23 ar
  44   22   27 ar
  45   23   24 ar
  46   23   52 1
  47   24   25 ar
  48   24   28 1
  49   25   26 ar
  50   25   53 1
  51   26   27 ar
  52   26   54 1
  53   27   55 1
  54   28   29 2
  55   28   30 2
  56   31   32 1
  57   31   33 1
  58   31   34 1

#	End of record

