#	Name: ASD01910940
#	Creating user name:	WinNT
#	Creation time:	15. 06. 2019 19:56

#	Modifying user name:	WinNT
#	Modification time:	15. 06. 2019 19:56

#	Program:	/corina/corina34_cracker 3.40 0067  02.08.2006

@<TRIPOS>MOLECULE
ASD01910940
  47   50    0    0    0
SMALL
NO_CHARGES


@<TRIPOS>ATOM
   1 N1             0.1379     1.3763    -0.1931 N.3     
   2 C2             0.0784    -0.0896    -0.1187 C.3     
   3 C3            -1.3673    -0.5263     0.1409 C.3     
   4 N4            -2.2298     0.0798    -0.8848 N.am    
   5 C5            -2.1265     1.5291    -1.1129 C.3     
   6 C6            -0.6509     1.8849    -1.3232 C.3     
   7 C7            -3.0921    -0.6728    -1.5963 C.2     
   8 C8            -4.0371    -0.0281    -2.5333 C.ar    
   9 C9            -4.3123    -0.6206    -3.7677 C.ar    
  10 C10           -5.1946    -0.0205    -4.6447 C.ar    
  11 C11           -5.8105     1.1681    -4.3090 C.ar    
  12 C12           -5.5442     1.7731    -3.0766 C.ar    
  13 C13           -4.6590     1.1687    -2.1842 C.ar    
  14 C14           -6.1834     3.0066    -2.7293 C.1     
  15 O15           -3.0931    -1.8815    -1.4679 O.2     
  16 C16           -6.7074     4.0178    -2.4446 C.1     
  17 C17           -7.3466     5.2513    -2.0972 C.ar    
  18 C18           -7.0879     5.8645    -0.8689 C.ar    
  19 N19           -7.6761     6.9987    -0.5503 N.ar    
  20 C20           -8.5234     7.5974    -1.3651 C.ar    
  21 C21           -8.8333     7.0545    -2.5996 C.ar    
  22 C22           -8.2381     5.8672    -2.9861 C.ar    
  23 C23            1.4486     1.8166    -0.2648 C.ar    
  24 N24            1.6905     3.1171    -0.3381 N.ar    
  25 C25            2.9309     3.5715    -0.4073 C.ar    
  26 C26            3.9832     2.6683    -0.4025 C.ar    
  27 C27            3.6938     1.3143    -0.3248 C.ar    
  28 N28            2.4308     0.9277    -0.2530 N.ar    
  29 Br29           5.7733     3.2698    -0.5004 Br      
  30 H30            0.4236    -0.5160    -1.0606 H       
  31 H31            0.7153    -0.4387     0.6941 H       
  32 H32           -1.4377    -1.6125     0.0832 H       
  33 H33           -1.6801    -0.1883     1.1288 H       
  34 H34           -2.6988     1.8019    -1.9996 H       
  35 H35           -2.5123     2.0648    -0.2456 H       
  36 H36           -0.5429     2.9678    -1.3839 H       
  37 H37           -0.2955     1.4311    -2.2483 H       
  38 H38           -3.8338    -1.5505    -4.0374 H       
  39 H39           -5.4031    -0.4833    -5.5980 H       
  40 H40           -6.4993     1.6320    -4.9995 H       
  41 H41           -4.4493     1.6311    -1.2310 H       
  42 H42           -6.4002     5.4043    -0.1749 H       
  43 H43           -8.9833     8.5269    -1.0634 H       
  44 H44           -9.5292     7.5550    -3.2564 H       
  45 H45           -8.4619     5.4215    -3.9440 H       
  46 H46            3.1217     4.6328    -0.4672 H       
  47 H47            4.4900     0.5846    -0.3189 H       
@<TRIPOS>BOND
   1    1    2 1
   2    1   23 1
   3    1    6 1
   4    2    3 1
   5    2   30 1
   6    2   31 1
   7    3    4 1
   8    3   32 1
   9    3   33 1
  10    4    5 1
  11    4    7 am
  12    5    6 1
  13    5   34 1
  14    5   35 1
  15    6   36 1
  16    6   37 1
  17    7    8 1
  18    7   15 2
  19    8    9 ar
  20    8   13 ar
  21    9   10 ar
  22    9   38 1
  23   10   11 ar
  24   10   39 1
  25   11   12 ar
  26   11   40 1
  27   12   13 ar
  28   12   14 1
  29   13   41 1
  30   14   16 3
  31   16   17 1
  32   17   18 ar
  33   17   22 ar
  34   18   19 ar
  35   18   42 1
  36   19   20 ar
  37   20   21 ar
  38   20   43 1
  39   21   22 ar
  40   21   44 1
  41   22   45 1
  42   23   24 ar
  43   23   28 ar
  44   24   25 ar
  45   25   26 ar
  46   25   46 1
  47   26   27 ar
  48   26   29 1
  49   27   28 ar
  50   27   47 1

#	End of record

