#	Name: ASD03090430
#	Creating user name:	WinNT
#	Creation time:	15. 06. 2019 20:28

#	Modifying user name:	WinNT
#	Modification time:	15. 06. 2019 20:28

#	Program:	/corina/corina34_cracker 3.40 0067  02.08.2006

@<TRIPOS>MOLECULE
ASD03090430
  39   41    0    0    0
SMALL
NO_CHARGES


@<TRIPOS>ATOM
   1 C1            -0.0181     1.5035     0.0014 C.2     
   2 C2             0.0032    -0.0033    -0.0069 C.3     
   3 O3             1.0234     2.1248    -0.0132 O.2     
   4 N4            -1.1946     2.1607     0.0195 N.am    
   5 N5             5.3366    -1.8069     0.1654 N.pl3   
   6 C6             5.5196    -1.8678     1.5200 C.2     
   7 C7             4.3976    -1.4872     2.1510 C.2     
   8 C8             3.4157    -1.1555     1.1157 C.ar    
   9 C9             2.0931    -0.7084     1.1401 C.ar    
  10 C10            1.4308    -0.4854    -0.0339 C.ar    
  11 C11            2.0623    -0.6998    -1.2516 C.ar    
  12 C12            3.3663    -1.1411    -1.2987 C.ar    
  13 C13            4.0598    -1.3746    -0.1154 C.ar    
  14 C14           -1.2153     3.5519     0.1325 C.ar    
  15 C15           -2.4241     4.2314     0.0364 C.ar    
  16 C16           -2.4332     5.6101     0.1499 C.ar    
  17 C17           -1.2229     6.2666     0.3572 C.ar    
  18 C18           -0.0567     5.5234     0.4425 C.ar    
  19 N19           -0.0848     4.2086     0.3352 N.ar    
  20 O20           -1.1858     7.6209     0.4740 O.3     
  21 C21            0.0947     8.2190     0.6853 C.3     
  22 C22           -0.0628     9.7372     0.7911 C.3     
  23 H23           -0.4900    -0.3786     0.8898 H       
  24 H24           -0.5206    -0.3693    -0.8899 H       
  25 H25           -2.0270     1.6670    -0.0461 H       
  26 H26            6.0077    -2.0309    -0.4982 H       
  27 H27            6.4317    -2.1767     2.0091 H       
  28 H28            4.2472    -1.4355     3.2192 H       
  29 H29            1.5952    -0.5403     2.0836 H       
  30 H30            1.5256    -0.5190    -2.1712 H       
  31 H31            3.8487    -1.3052    -2.2509 H       
  32 H32           -3.3445     3.6900    -0.1251 H       
  33 H33           -3.3574     6.1643     0.0790 H       
  34 H34            0.8858     6.0258     0.6029 H       
  35 H35            0.5279     7.8335     1.6082 H       
  36 H36            0.7503     7.9792    -0.1518 H       
  37 H37           -0.4961    10.1227    -0.1319 H       
  38 H38           -0.7185     9.9770     1.6281 H       
  39 H39            0.9139    10.1935     0.9522 H       
@<TRIPOS>BOND
   1    1    2 1
   2    1    3 2
   3    1    4 am
   4    2   10 1
   5    2   23 1
   6    2   24 1
   7    4   14 1
   8    4   25 1
   9    5    6 1
  10    5   13 1
  11    5   26 1
  12    6    7 2
  13    6   27 1
  14    7    8 1
  15    7   28 1
  16    8    9 ar
  17    8   13 ar
  18    9   10 ar
  19    9   29 1
  20   10   11 ar
  21   11   12 ar
  22   11   30 1
  23   12   13 ar
  24   12   31 1
  25   14   15 ar
  26   14   19 ar
  27   15   16 ar
  28   15   32 1
  29   16   17 ar
  30   16   33 1
  31   17   18 ar
  32   17   20 1
  33   18   19 ar
  34   18   34 1
  35   20   21 1
  36   21   22 1
  37   21   35 1
  38   21   36 1
  39   22   37 1
  40   22   38 1
  41   22   39 1

#	End of record

