#	Name: ASD05790117
#	Creating user name:	WinNT
#	Creation time:	15. 06. 2019 21:03

#	Modifying user name:	WinNT
#	Modification time:	15. 06. 2019 21:03

#	Program:	/corina/corina34_cracker 3.40 0067  02.08.2006

@<TRIPOS>MOLECULE
ASD05790117
 114  121    0    0    0
SMALL
NO_CHARGES


@<TRIPOS>ATOM
   1 C1             2.1571    -0.2426    -0.3495 C.3     
   2 C2             2.5517    -1.6991    -0.6040 C.3     
   3 C3             3.2476    -1.8066    -1.9608 C.3     
   4 C4             4.5107    -0.9408    -1.9640 C.3     
   5 C5             4.1193     0.5225    -1.6975 C.3     
   6 C6             3.4152     0.6277    -0.3458 C.3     
   7 C7             5.1987    -1.0804    -3.3228 C.3     
   8 C8             4.3066    -0.5374    -4.4517 C.3     
   9 C9             4.0106     0.9166    -4.1383 C.3     
  10 C10            3.1982     0.9507    -2.8173 C.3     
  11 C11            3.0536     1.6289    -5.1016 C.3     
  12 C12            2.4374     2.7462    -4.2639 C.2     
  13 C13            2.6760     2.3804    -2.7935 C.3     
  14 C14            5.3751     1.3966    -1.6911 C.3     
  15 N15            1.3508    -2.5381    -0.6028 N.am    
  16 C16            3.8371     2.1925    -6.2706 C.3     
  17 C17            2.9949     2.8775    -7.2932 C.3     
  18 C18            2.5805     4.2897    -6.9517 C.3     
  19 C19            1.4153     4.3277    -5.9781 C.3     
  20 C20            1.7860     3.7604    -4.6557 C.2     
  21 C21            1.2632     4.5862    -3.5087 C.3     
  22 C22            2.1501     5.0113    -8.2641 C.3     
  23 C23            2.7451     6.4109    -8.0435 C.3     
  24 C24            4.0748     6.0032    -7.3490 C.3     
  25 O25            3.7001     5.0229    -6.4076 O.3     
  26 N26            3.1413     7.1248    -9.2536 N.am    
  27 C27            3.9496     8.3435    -9.0404 C.3     
  28 C28            5.1690     8.0438    -8.1705 C.3     
  29 C29            4.7766     7.2615    -6.9046 C.3     
  30 C30            2.7684     4.3376    -9.4908 C.3     
  31 C31            5.8273     9.3625    -7.7600 C.3     
  32 C32            2.7931     6.7002   -10.4844 C.2     
  33 O33            3.4240     7.1891   -11.5687 O.3     
  34 O34            1.9098     5.8761   -10.6155 O.2     
  35 C35            2.9969     6.6865   -12.8623 C.3     
  36 C36            3.8093     7.3423   -13.9491 C.ar    
  37 C37            4.9910     6.7638   -14.3731 C.ar    
  38 C38            3.3699     8.5192   -14.5258 C.ar    
  39 C39            4.1151     9.1207   -15.5227 C.ar    
  40 C40            5.3000     8.5455   -15.9425 C.ar    
  41 C41            5.7363     7.3653   -15.3699 C.ar    
  42 S42            0.8880    -3.3195     0.7820 S.o2    
  43 O43           -0.3133    -4.0113     0.4700 O.2     
  44 O44            2.0491    -3.9661     1.2850 O.2     
  45 N45            0.4837    -2.1564     1.8893 N.am    
  46 C46           -0.5736    -1.3512     1.6653 C.2     
  47 O47           -0.9023    -0.4056     2.5656 O.3     
  48 O48           -1.2302    -1.4787     0.6509 O.2     
  49 C49           -2.0529     0.4253     2.2587 C.3     
  50 C50           -2.2666     1.4184     3.3718 C.ar    
  51 C51           -1.6510     2.6552     3.3222 C.ar    
  52 C52           -1.8470     3.5662     4.3433 C.ar    
  53 C53           -2.6589     3.2406     5.4137 C.ar    
  54 C54           -3.2752     2.0042     5.4628 C.ar    
  55 C55           -3.0826     1.0948     4.4396 C.ar    
  56 H56            1.4834     0.0949    -1.1372 H       
  57 H57            1.6574    -0.1642     0.6160 H       
  58 H58            3.2305    -2.0342     0.1803 H       
  59 H59            3.5197    -2.8455    -2.1474 H       
  60 H60            2.5710    -1.4636    -2.7435 H       
  61 H61            5.1871    -1.2835    -1.1810 H       
  62 H62            3.1376     1.6655    -0.1614 H       
  63 H63            4.0886     0.2881     0.4412 H       
  64 H64            6.1359    -0.5239    -3.3082 H       
  65 H65            5.4115    -2.1329    -3.5097 H       
  66 H66            4.8296    -0.6117    -5.4051 H       
  67 H67            3.3764    -1.1039    -4.4935 H       
  68 H68            4.9395     1.4763    -4.0280 H       
  69 H69            2.3581     0.2596    -2.8857 H       
  70 H70            2.2805     0.9421    -5.4459 H       
  71 H71            1.7416     2.4323    -2.2346 H       
  72 H72            3.4181     3.0467    -2.3537 H       
  73 H73            5.9481     1.2160    -2.6005 H       
  74 H74            5.0866     2.4467    -1.6459 H       
  75 H75            5.9852     1.1497    -0.8222 H       
  76 H76            0.8268    -2.6360    -1.4131 H       
  77 H77            4.5669     2.9059    -5.8876 H       
  78 H78            4.3747     1.3766    -6.7537 H       
  79 H79            3.5481     2.9009    -8.2321 H       
  80 H80            2.0936     2.2842    -7.4472 H       
  81 H81            1.0970     5.3617    -5.8447 H       
  82 H82            0.5870     3.7527    -6.3921 H       
  83 H83            0.7127     5.4423    -3.8986 H       
  84 H84            0.6001     3.9768    -2.8947 H       
  85 H85            2.0988     4.9370    -2.9030 H       
  86 H86            1.0643     5.0559    -8.3490 H       
  87 H87            2.1150     7.0175    -7.3930 H       
  88 H88            4.7063     5.5264    -8.0986 H       
  89 H89            4.2831     8.7256   -10.0052 H       
  90 H90            3.3362     9.0989    -8.5494 H       
  91 H91            5.8822     7.4547    -8.7470 H       
  92 H92            4.1055     7.8627    -6.2910 H       
  93 H93            5.6703     7.0057    -6.3356 H       
  94 H94            3.0915     3.3303    -9.2278 H       
  95 H95            2.0275     4.2849   -10.2884 H       
  96 H96            3.6267     4.9176    -9.8299 H       
  97 H97            5.1143     9.9648    -7.1970 H       
  98 H98            6.6987     9.1557    -7.1387 H       
  99 H99            6.1380     9.9066    -8.6520 H       
 100 H100           3.1443     5.6072   -12.8995 H       
 101 H101           1.9413     6.9144   -13.0101 H       
 102 H102           5.3323     5.8422   -13.9253 H       
 103 H103           2.4442     8.9686   -14.1979 H       
 104 H104           3.7715    10.0398   -15.9738 H       
 105 H105           5.8820     9.0152   -16.7216 H       
 106 H106           6.6619     6.9159   -15.6979 H       
 107 H107           1.0079    -2.0546     2.6991 H       
 108 H108          -1.8770     0.9587     1.3246 H       
 109 H109          -2.9379    -0.2028     2.1573 H       
 110 H110          -1.0167     2.9095     2.4860 H       
 111 H111          -1.3655     4.5322     4.3049 H       
 112 H112          -2.8115     3.9521     6.2117 H       
 113 H113          -3.9092     1.7497     6.2992 H       
 114 H114          -3.5641     0.1289     4.4779 H       
@<TRIPOS>BOND
   1    1    2 1
   2    1    6 1
   3    1   56 1
   4    1   57 1
   5    2    3 1
   6    2   15 1
   7    2   58 1
   8    3    4 1
   9    3   59 1
  10    3   60 1
  11    4    5 1
  12    4    7 1
  13    4   61 1
  14    5    6 1
  15    5   14 1
  16    5   10 1
  17    6   62 1
  18    6   63 1
  19    7    8 1
  20    7   64 1
  21    7   65 1
  22    8    9 1
  23    8   66 1
  24    8   67 1
  25    9   10 1
  26    9   11 1
  27    9   68 1
  28   10   13 1
  29   10   69 1
  30   11   12 1
  31   11   16 1
  32   11   70 1
  33   12   13 1
  34   12   20 2
  35   13   71 1
  36   13   72 1
  37   14   73 1
  38   14   74 1
  39   14   75 1
  40   15   42 am
  41   15   76 1
  42   16   17 1
  43   16   77 1
  44   16   78 1
  45   17   18 1
  46   17   79 1
  47   17   80 1
  48   18   19 1
  49   18   25 1
  50   18   22 1
  51   19   20 1
  52   19   81 1
  53   19   82 1
  54   20   21 1
  55   21   83 1
  56   21   84 1
  57   21   85 1
  58   22   23 1
  59   22   30 1
  60   22   86 1
  61   23   24 1
  62   23   26 1
  63   23   87 1
  64   24   25 1
  65   24   29 1
  66   24   88 1
  67   26   27 1
  68   26   32 am
  69   27   28 1
  70   27   89 1
  71   27   90 1
  72   28   29 1
  73   28   31 1
  74   28   91 1
  75   29   92 1
  76   29   93 1
  77   30   94 1
  78   30   95 1
  79   30   96 1
  80   31   97 1
  81   31   98 1
  82   31   99 1
  83   32   33 1
  84   32   34 2
  85   33   35 1
  86   35   36 1
  87   35  100 1
  88   35  101 1
  89   36   37 ar
  90   36   38 ar
  91   37   41 ar
  92   37  102 1
  93   38   39 ar
  94   38  103 1
  95   39   40 ar
  96   39  104 1
  97   40   41 ar
  98   40  105 1
  99   41  106 1
 100   42   43 2
 101   42   44 2
 102   42   45 am
 103   45   46 am
 104   45  107 1
 105   46   47 1
 106   46   48 2
 107   47   49 1
 108   49   50 1
 109   49  108 1
 110   49  109 1
 111   50   51 ar
 112   50   55 ar
 113   51   52 ar
 114   51  110 1
 115   52   53 ar
 116   52  111 1
 117   53   54 ar
 118   53  112 1
 119   54   55 ar
 120   54  113 1
 121   55  114 1

#	End of record

