#	Name: ASD01914374
#	Creating user name:	WinNT
#	Creation time:	15. 06. 2019 20:03

#	Modifying user name:	WinNT
#	Modification time:	15. 06. 2019 20:03

#	Program:	/corina/corina34_cracker 3.40 0067  02.08.2006

@<TRIPOS>MOLECULE
ASD01914374
  33   34    0    0    0
SMALL
NO_CHARGES


@<TRIPOS>ATOM
   1 C1            -0.0167     1.3786     0.0096 C.ar    
   2 C2             0.0021    -0.0041     0.0020 C.ar    
   3 C3             1.2071    -0.6823    -0.0132 C.ar    
   4 C4             2.3964     0.0198    -0.0208 C.ar    
   5 C5             2.3811     1.4088    -0.0132 C.ar    
   6 C6             1.1689     2.0869     0.0021 C.ar    
   7 N7             3.5821     2.1220    -0.0204 N.pl3   
   8 C8             3.5641     3.5869    -0.0124 C.3     
   9 C9             4.9786     4.1066    -0.0226 C.2     
  10 C10            5.2292     5.5537    -0.0171 C.ar    
  11 C11            6.5427     6.0393    -0.0266 C.ar    
  12 C12            6.7713     7.3912    -0.0219 C.ar    
  13 C13            5.7014     8.2798    -0.0073 C.ar    
  14 C14            4.3950     7.8027     0.0026 C.ar    
  15 C15            4.1555     6.4526    -0.0083 C.ar    
  16 O16            5.9101     3.3298    -0.0354 O.2     
  17 O17            5.9329     9.6165    -0.0023 O.3     
  18 C18            4.7891    10.4730     0.0128 C.3     
  19 H19           -0.9596     1.9053     0.0170 H       
  20 H20           -0.9265    -0.5555     0.0083 H       
  21 H21            1.2182    -1.7622    -0.0187 H       
  22 H22            3.3371    -0.5105    -0.0323 H       
  23 H23            1.1535     3.1668     0.0077 H       
  24 H24            4.4279     1.6474    -0.0308 H       
  25 H25            3.0377     3.9486    -0.8956 H       
  26 H26            3.0541     3.9391     0.8842 H       
  27 H27            7.3742     5.3501    -0.0372 H       
  28 H28            7.7838     7.7668    -0.0292 H       
  29 H29            3.5677     8.4969     0.0146 H       
  30 H30            3.1407     6.0832    -0.0006 H       
  31 H31            4.1822    10.2842    -0.8727 H       
  32 H32            4.1985    10.2747     0.9072 H       
  33 H33            5.1143    11.5133     0.0154 H       
@<TRIPOS>BOND
   1    1    2 ar
   2    1    6 ar
   3    1   19 1
   4    2    3 ar
   5    2   20 1
   6    3    4 ar
   7    3   21 1
   8    4    5 ar
   9    4   22 1
  10    5    6 ar
  11    5    7 1
  12    6   23 1
  13    7    8 1
  14    7   24 1
  15    8    9 1
  16    8   25 1
  17    8   26 1
  18    9   10 1
  19    9   16 2
  20   10   11 ar
  21   10   15 ar
  22   11   12 ar
  23   11   27 1
  24   12   13 ar
  25   12   28 1
  26   13   14 ar
  27   13   17 1
  28   14   15 ar
  29   14   29 1
  30   15   30 1
  31   17   18 1
  32   18   31 1
  33   18   32 1
  34   18   33 1

#	End of record

