#	Name: ASD01912470
#	Creating user name:	WinNT
#	Creation time:	15. 06. 2019 19:59

#	Modifying user name:	WinNT
#	Modification time:	15. 06. 2019 19:59

#	Program:	/corina/corina34_cracker 3.40 0067  02.08.2006

@<TRIPOS>MOLECULE
ASD01912470
  50   53    0    0    0
SMALL
NO_CHARGES


@<TRIPOS>ATOM
   1 C1             0.7328     1.3969    -1.3804 C.ar    
   2 C2             0.7245     0.0159    -1.3070 C.ar    
   3 C3             1.3194    -0.6072    -0.2144 C.ar    
   4 N4             1.8860     0.1096     0.7438 N.ar    
   5 C5             1.9087     1.4284     0.6999 C.ar    
   6 C6             1.3379     2.1115    -0.3548 C.ar    
   7 C7             0.0796    -0.8030    -2.3954 C.3     
   8 N8             1.3184    -1.9945    -0.1278 N.3     
   9 C9             2.6853    -2.5275    -0.2011 C.3     
  10 C10            0.6354    -2.4453     1.0922 C.3     
  11 C11            0.4960    -3.9710     1.0614 C.3     
  12 N12            1.8267    -4.5574     0.8409 N.am    
  13 C13            2.6299    -4.0566    -0.2849 C.3     
  14 C14            2.2974    -5.5282     1.6486 C.2     
  15 O15            3.3539    -6.0726     1.3930 O.2     
  16 N16            1.5967    -5.8955     2.7398 N.am    
  17 C17            2.1293    -6.8158     3.6274 C.2     
  18 S18            1.3284    -7.3832     5.0859 S.3     
  19 C19            2.7057    -8.4180     5.4559 C.ar    
  20 C20            3.6630    -8.2550     4.4501 C.ar    
  21 N21            3.2793    -7.3814     3.4984 N.2     
  22 C22            2.9389    -9.2906     6.5162 C.ar    
  23 C23            4.1165   -10.0011     6.5822 C.ar    
  24 C24            5.0748    -9.8487     5.5907 C.ar    
  25 C25            4.8620    -8.9937     4.5393 C.ar    
  26 C26            4.0468    -4.6277    -0.1995 C.3     
  27 C27            4.3646   -10.9438     7.7316 C.3     
  28 H28            0.2827     1.9079    -2.2187 H       
  29 H29            2.3797     1.9803     1.4999 H       
  30 H30            1.3616     3.1909    -0.3823 H       
  31 H31            0.7933    -0.9585    -3.2044 H       
  32 H32           -0.2271    -1.7676    -1.9910 H       
  33 H33           -0.7940    -0.2751    -2.7780 H       
  34 H34            3.1827    -2.1325    -1.0869 H       
  35 H35            3.2393    -2.2319     0.6899 H       
  36 H36            1.2179    -2.1508     1.9651 H       
  37 H37           -0.3539    -1.9907     1.1443 H       
  38 H38            0.0946    -4.3213     2.0123 H       
  39 H39           -0.1712    -4.2615     0.2498 H       
  40 H40            2.1679    -4.3553    -1.2258 H       
  41 H41            0.7195    -5.5154     2.9035 H       
  42 H42            2.1940    -9.4101     7.2890 H       
  43 H43            5.9970   -10.4080     5.6474 H       
  44 H44            5.6169    -8.8855     3.7746 H       
  45 H45            4.0182    -5.7006    -0.3898 H       
  46 H46            4.6792    -4.1434    -0.9435 H       
  47 H47            4.4524    -4.4460     0.7958 H       
  48 H48            3.9930   -11.9357     7.4747 H       
  49 H49            5.4344   -10.9975     7.9330 H       
  50 H50            3.8457   -10.5798     8.6184 H       
@<TRIPOS>BOND
   1    1    2 ar
   2    1    6 ar
   3    1   28 1
   4    2    3 ar
   5    2    7 1
   6    3    4 ar
   7    3    8 1
   8    4    5 ar
   9    5    6 ar
  10    5   29 1
  11    6   30 1
  12    7   31 1
  13    7   32 1
  14    7   33 1
  15    8    9 1
  16    8   10 1
  17    9   13 1
  18    9   34 1
  19    9   35 1
  20   10   11 1
  21   10   36 1
  22   10   37 1
  23   11   12 1
  24   11   38 1
  25   11   39 1
  26   12   13 1
  27   12   14 am
  28   13   26 1
  29   13   40 1
  30   14   15 2
  31   14   16 am
  32   16   17 1
  33   16   41 1
  34   17   18 1
  35   17   21 2
  36   18   19 1
  37   19   20 ar
  38   19   22 ar
  39   20   21 1
  40   20   25 ar
  41   22   23 ar
  42   22   42 1
  43   23   24 ar
  44   23   27 1
  45   24   25 ar
  46   24   43 1
  47   25   44 1
  48   26   45 1
  49   26   46 1
  50   26   47 1
  51   27   48 1
  52   27   49 1
  53   27   50 1

#	End of record

