#	Name: ASD01140159
#	Creating user name:	WinNT
#	Creation time:	15. 06. 2019 19:00

#	Modifying user name:	WinNT
#	Modification time:	15. 06. 2019 19:00

#	Program:	/corina/corina34_cracker 3.40 0067  02.08.2006

@<TRIPOS>MOLECULE
ASD01140159
  47   50    0    0    0
SMALL
NO_CHARGES


@<TRIPOS>ATOM
   1 C1             0.2587     1.7715     0.4994 C.ar    
   2 C2             0.1285     0.3803     0.4996 C.ar    
   3 C3             1.2511    -0.4215     0.3354 C.ar    
   4 C4             2.5170     0.1551     0.1688 C.ar    
   5 C5             2.6279     1.5477     0.1473 C.ar    
   6 C6             1.4988     2.3428     0.3243 C.ar    
   7 C7             3.6700    -0.7456     0.0564 C.2     
   8 N8             4.6800    -0.6393    -0.7333 N.2     
   9 C9             4.7931     0.4597    -1.6991 C.3     
  10 C10            4.8217     1.7508    -0.9228 C.2     
  11 N11            3.8499     2.1858    -0.0825 N.pl3   
  12 C12            4.2726     3.3597     0.4608 C.2     
  13 C13            5.8064     2.6905    -0.9190 C.2     
  14 N14            5.4328     3.6652    -0.0472 N.2     
  15 C15            3.6714    -1.9181     0.9618 C.ar    
  16 C16            2.9636    -1.8762     2.1629 C.ar    
  17 C17            4.3759    -3.0705     0.6138 C.ar    
  18 C18            4.3730    -4.1596     1.4610 C.ar    
  19 C19            3.6733    -4.1101     2.6535 C.ar    
  20 C20            2.9684    -2.9718     3.0017 C.ar    
  21 C21           -1.1611    -0.2186     0.6695 C.1     
  22 C22           -2.2184    -0.7096     0.8088 C.1     
  23 C23            7.0462     2.6575    -1.7111 C.2     
  24 O24            7.2651     1.7245    -2.4588 O.2     
  25 O25            7.9392     3.6619    -1.6074 O.3     
  26 C26            9.1396     3.5631    -2.4182 C.3     
  27 C27            8.8961     4.2302    -3.7734 C.3     
  28 C28           10.2964     4.2655    -1.7045 C.3     
  29 H29           -0.6118     2.3969     0.6318 H       
  30 H30            1.1472    -1.4965     0.3365 H       
  31 H31            1.5968     3.4184     0.3243 H       
  32 H32            5.7133     0.3535    -2.2736 H       
  33 H33            3.9345     0.4514    -2.3706 H       
  34 H34            3.7342     3.9430     1.1932 H       
  35 H35            2.4132    -0.9880     2.4359 H       
  36 H36            4.9221    -3.1104    -0.3170 H       
  37 H37            4.9178    -5.0526     1.1925 H       
  38 H38            3.6738    -4.9652     3.3132 H       
  39 H39            2.4244    -2.9389     3.9341 H       
  40 H40           -3.1640    -1.1488     0.9334 H       
  41 H41            9.3902     2.5131    -2.5699 H       
  42 H42            9.7973     4.1559    -4.3821 H       
  43 H43            8.0720     3.7297    -4.2819 H       
  44 H44            8.6456     5.2801    -3.6218 H       
  45 H45           10.4699     3.7903    -0.7390 H       
  46 H46           11.1976     4.1913    -2.3132 H       
  47 H47           10.0458     5.3154    -1.5529 H       
@<TRIPOS>BOND
   1    1    2 ar
   2    1    6 ar
   3    1   29 1
   4    2    3 ar
   5    2   21 1
   6    3    4 ar
   7    3   30 1
   8    4    5 ar
   9    4    7 1
  10    5    6 ar
  11    5   11 1
  12    6   31 1
  13    7    8 2
  14    7   15 1
  15    8    9 1
  16    9   10 1
  17    9   32 1
  18    9   33 1
  19   10   11 1
  20   10   13 2
  21   11   12 1
  22   12   14 2
  23   12   34 1
  24   13   14 1
  25   13   23 1
  26   15   16 ar
  27   15   17 ar
  28   16   20 ar
  29   16   35 1
  30   17   18 ar
  31   17   36 1
  32   18   19 ar
  33   18   37 1
  34   19   20 ar
  35   19   38 1
  36   20   39 1
  37   21   22 3
  38   22   40 1
  39   23   24 2
  40   23   25 1
  41   25   26 1
  42   26   27 1
  43   26   28 1
  44   26   41 1
  45   27   42 1
  46   27   43 1
  47   27   44 1
  48   28   45 1
  49   28   46 1
  50   28   47 1

#	End of record

