#	Name: ASD00431050
#	Creating user name:	WinNT
#	Creation time:	15. 06. 2019 18:35

#	Modifying user name:	WinNT
#	Modification time:	15. 06. 2019 18:35

#	Program:	/corina/corina34_cracker 3.40 0067  02.08.2006

@<TRIPOS>MOLECULE
ASD00431050
  83   88    0    0    0
SMALL
NO_CHARGES


@<TRIPOS>ATOM
   1 C1            -0.4616     1.2696     0.7467 C.2     
   2 C2             0.2795    -0.0417     0.5055 C.3     
   3 C3            -0.8314    -0.9936     0.0138 C.3     
   4 C4            -2.1030    -0.1891     0.1390 C.2     
   5 N5            -1.8164     1.0416     0.5771 N.am    
   6 C6            -0.5902    -1.3872    -1.4449 C.3     
   7 O7            -3.2157    -0.5972    -0.1186 O.2     
   8 C8            -1.6526    -2.3613    -1.8847 C.2     
   9 N9            -1.6415    -2.8486    -3.1412 N.am    
  10 O10           -2.5175    -2.7068    -1.1079 O.2     
  11 C11           -2.8399     2.0533     0.8513 C.3     
  12 C12           -3.5735     1.6953     2.1181 C.ar    
  13 C13           -4.7977     1.1034     2.0557 C.ar    
  14 C14           -2.9949     1.9654     3.3696 C.ar    
  15 C15           -3.7002     1.6215     4.5501 C.ar    
  16 C16           -4.9643     1.0170     4.4458 C.ar    
  17 C17           -5.4910     0.7652     3.2160 C.ar    
  18 C18           -2.6712    -3.7992    -3.5839 C.3     
  19 C19           -0.6032    -2.4341    -4.0951 C.3     
  20 C20           -1.2854    -1.8756    -5.3501 C.3     
  21 N21           -2.3118    -2.8305    -5.7910 N.am    
  22 C22           -3.3490    -3.2378    -4.8399 C.3     
  23 C23           -2.3013    -3.3171    -7.0478 C.2     
  24 C24           -1.1918    -2.9929    -7.9505 C.2     
  25 O25           -3.2125    -4.0256    -7.4337 O.2     
  26 C26           -0.9790    -3.5327    -9.1865 C.2     
  27 C27            0.1882    -2.9383    -9.6909 C.2     
  28 C28            0.6311    -2.0726    -8.7526 C.2     
  29 O29           -0.2058    -2.1046    -7.7075 O.3     
  30 C30           -1.7302     2.5695     3.4740 C.ar    
  31 C31           -1.2010     2.8157     4.7033 C.ar    
  32 C32           -1.8944     2.4771     5.8641 C.ar    
  33 C33           -3.1212     1.8914     5.8019 C.ar    
  34 C34            0.1367     2.3865     1.0206 C.2     
  35 C35            1.6149     2.5710     1.0816 C.3     
  36 C36            2.0548     2.7061     2.5531 C.3     
  37 C37            1.4733     1.4224     3.2267 C.3     
  38 C38            1.9563     0.2218     2.4267 C.3     
  39 C39            0.8560    -0.5583     1.8033 C.3     
  40 C40            1.3550     0.1247    -0.5369 C.2     
  41 O41            2.4733    -0.2787    -0.3210 O.2     
  42 O42            1.0707     0.7212    -1.7053 O.3     
  43 C43            1.6443     1.5471    -3.9232 C.3     
  44 C44            2.1554     0.8472    -2.6623 C.3     
  45 H45           -0.8789    -1.8809     0.6451 H       
  46 H46           -0.6310    -0.4971    -2.0729 H       
  47 H47            0.3909    -1.8529    -1.5381 H       
  48 H48           -2.3654     3.0275     0.9692 H       
  49 H49           -3.5452     2.0908     0.0212 H       
  50 H50           -5.2384     0.8931     1.0924 H       
  51 H51           -5.5132     0.7495     5.3365 H       
  52 H52           -6.4630     0.3008     3.1387 H       
  53 H53           -2.2082    -4.7583    -3.8158 H       
  54 H54           -3.4124    -3.9292    -2.7953 H       
  55 H55            0.0210    -1.6628    -3.6441 H       
  56 H56            0.0105    -3.2938    -4.3642 H       
  57 H57           -1.7521    -0.9184    -5.1175 H       
  58 H58           -0.5460    -1.7426    -6.1399 H       
  59 H59           -3.9741    -4.0099    -5.2887 H       
  60 H60           -3.9615    -2.3759    -4.5752 H       
  61 H61           -1.5901    -4.2738    -9.6801 H       
  62 H62            0.6462    -3.1357   -10.6489 H       
  63 H63            1.5125    -1.4538    -8.8338 H       
  64 H64           -1.1811     2.8367     2.5832 H       
  65 H65           -0.2290     3.2800     4.7807 H       
  66 H66           -1.4514     2.6828     6.8274 H       
  67 H67           -3.6469     1.6349     6.7098 H       
  68 H68           -0.4825     3.2488     1.2193 H       
  69 H69            2.1076     1.7086     0.6326 H       
  70 H70            1.8914     3.4728     0.5353 H       
  71 H71            3.1421     2.7210     2.6293 H       
  72 H72            1.6268     3.6027     3.0014 H       
  73 H73            1.8305     1.3499     4.2539 H       
  74 H74            0.3840     1.4601     3.2152 H       
  75 H75            2.6185     0.5726     1.6352 H       
  76 H76            2.5228    -0.4339     3.0879 H       
  77 H77            0.0354    -0.6143     2.5185 H       
  78 H78            1.2176    -1.5719     1.6303 H       
  79 H79            0.8381     0.9601    -4.3631 H       
  80 H80            1.2722     2.5381    -3.6632 H       
  81 H81            2.4586     1.6417    -4.6416 H       
  82 H82            2.9616     1.4342    -2.2224 H       
  83 H83            2.5275    -0.1437    -2.9223 H       
@<TRIPOS>BOND
   1    1    2 1
   2    1   34 2
   3    1    5 1
   4    2   40 1
   5    2    3 1
   6    2   39 1
   7    3    4 1
   8    3    6 1
   9    3   45 1
  10    4    5 am
  11    4    7 2
  12    5   11 1
  13    6    8 1
  14    6   46 1
  15    6   47 1
  16    8    9 am
  17    8   10 2
  18    9   18 1
  19    9   19 1
  20   11   12 1
  21   11   48 1
  22   11   49 1
  23   12   13 ar
  24   12   14 ar
  25   13   17 ar
  26   13   50 1
  27   14   15 ar
  28   14   30 ar
  29   15   16 ar
  30   15   33 ar
  31   16   17 ar
  32   16   51 1
  33   17   52 1
  34   18   22 1
  35   18   53 1
  36   18   54 1
  37   19   20 1
  38   19   55 1
  39   19   56 1
  40   20   21 1
  41   20   57 1
  42   20   58 1
  43   21   22 1
  44   21   23 am
  45   22   59 1
  46   22   60 1
  47   23   24 1
  48   23   25 2
  49   24   26 2
  50   24   29 1
  51   26   27 1
  52   26   61 1
  53   27   28 2
  54   27   62 1
  55   28   29 1
  56   28   63 1
  57   30   31 ar
  58   30   64 1
  59   31   32 ar
  60   31   65 1
  61   32   33 ar
  62   32   66 1
  63   33   67 1
  64   34   35 1
  65   34   68 1
  66   35   36 1
  67   35   69 1
  68   35   70 1
  69   36   37 1
  70   36   71 1
  71   36   72 1
  72   37   38 1
  73   37   73 1
  74   37   74 1
  75   38   39 1
  76   38   75 1
  77   38   76 1
  78   39   77 1
  79   39   78 1
  80   40   41 2
  81   40   42 1
  82   42   44 1
  83   43   44 1
  84   43   79 1
  85   43   80 1
  86   43   81 1
  87   44   82 1
  88   44   83 1

#	End of record

