#	Name: ASD01028596
#	Creating user name:	WinNT
#	Creation time:	15. 06. 2019 18:57

#	Modifying user name:	WinNT
#	Modification time:	15. 06. 2019 18:57

#	Program:	/corina/corina34_cracker 3.40 0067  02.08.2006

@<TRIPOS>MOLECULE
ASD01028596
  46   50    0    0    0
SMALL
NO_CHARGES


@<TRIPOS>ATOM
   1 N1            -0.0169     1.3921     0.0097 N.2     
   2 N2             0.0021    -0.0041     0.0020 N.pl3   
   3 C3             1.1087     2.0746     0.0026 C.2     
   4 C4             2.3555     1.4108    -0.0129 C.2     
   5 C5             2.4043     0.0531    -0.0206 C.2     
   6 C6             1.2004    -0.6774    -0.0130 C.2     
   7 N7             0.9138    -1.9689    -0.0176 N.2     
   8 N8            -0.3646    -2.1207    -0.0065 N.2     
   9 C9            -0.9590    -0.9535     0.0057 C.2     
  10 C10           -2.4466    -0.7132     0.0214 C.3     
  11 N11           -2.9153    -0.6434     1.4076 N.pl3   
  12 C12           -4.2593    -0.4274     1.6754 C.ar    
  13 C13           -5.1758    -0.2748     0.6482 C.ar    
  14 C14           -6.5150    -0.0596     0.9452 C.ar    
  15 N15           -6.9458     0.0051     2.1837 N.ar    
  16 C16           -6.1162    -0.1335     3.2231 C.ar    
  17 C17           -4.7367    -0.3620     3.0078 C.ar    
  18 C18            1.0674     3.5527     0.0105 C.2     
  19 C19           -6.5922    -0.0623     4.5456 C.ar    
  20 C20           -5.6919    -0.2126     5.5673 C.ar    
  21 C21           -4.3406    -0.4301     5.2784 C.ar    
  22 N22           -3.9079    -0.5017     4.0434 N.ar    
  23 O23           -6.1105    -0.1501     6.8583 O.3     
  24 C24           -5.1164    -0.3155     7.8714 C.3     
  25 C25           -0.0441     4.3659     0.0249 C.2     
  26 C26            0.2380     5.7096     0.0296 C.2     
  27 N27            1.4840     6.0814     0.0202 N.2     
  28 S28            2.4373     4.6775     0.0111 S.3     
  29 C29           -0.8708     6.7301     0.0446 C.3     
  30 O30           -2.1336     6.0613     0.0522 O.3     
  31 H31            3.2712     1.9834    -0.0189 H       
  32 H32            3.3547    -0.4596    -0.0328 H       
  33 H33           -2.6682     0.2264    -0.4848 H       
  34 H34           -2.9522    -1.5308    -0.4924 H       
  35 H35           -2.2860    -0.7483     2.1383 H       
  36 H36           -4.8499    -0.3227    -0.3803 H       
  37 H37           -7.2208     0.0579     0.1362 H       
  38 H38           -7.6392     0.1067     4.7496 H       
  39 H39           -3.6392    -0.5472     6.0912 H       
  40 H40           -4.3613     0.4640     7.7703 H       
  41 H41           -5.5833    -0.2439     8.8537 H       
  42 H42           -4.6463    -1.2930     7.7630 H       
  43 H43           -1.0525     3.9793     0.0321 H       
  44 H44           -0.7824     7.3495     0.9372 H       
  45 H45           -0.7980     7.3589    -0.8427 H       
  46 H46           -2.8946     6.6578     0.0620 H       
@<TRIPOS>BOND
   1    1    2 1
   2    1    3 2
   3    2    6 1
   4    2    9 1
   5    3    4 1
   6    3   18 1
   7    4    5 2
   8    4   31 1
   9    5    6 1
  10    5   32 1
  11    6    7 2
  12    7    8 1
  13    8    9 2
  14    9   10 1
  15   10   11 1
  16   10   33 1
  17   10   34 1
  18   11   12 1
  19   11   35 1
  20   12   13 ar
  21   12   17 ar
  22   13   14 ar
  23   13   36 1
  24   14   15 ar
  25   14   37 1
  26   15   16 ar
  27   16   17 ar
  28   16   19 ar
  29   17   22 ar
  30   18   25 2
  31   18   28 1
  32   19   20 ar
  33   19   38 1
  34   20   21 ar
  35   20   23 1
  36   21   22 ar
  37   21   39 1
  38   23   24 1
  39   24   40 1
  40   24   41 1
  41   24   42 1
  42   25   26 1
  43   25   43 1
  44   26   27 2
  45   26   29 1
  46   27   28 1
  47   29   30 1
  48   29   44 1
  49   29   45 1
  50   30   46 1

#	End of record

