#	Name: ASD02198791
#	Creating user name:	WinNT
#	Creation time:	15. 06. 2019 20:20

#	Modifying user name:	WinNT
#	Modification time:	15. 06. 2019 20:20

#	Program:	/corina/corina34_cracker 3.40 0067  02.08.2006

@<TRIPOS>MOLECULE
ASD02198791
  46   50    0    0    0
SMALL
NO_CHARGES


@<TRIPOS>ATOM
   1 F1             2.2530    -1.7085     2.4716 F       
   2 C2            -0.0432     1.5017    -0.1150 C.2     
   3 C3            -0.0730     0.1621     0.0974 C.2     
   4 N4             1.0715    -0.5396     0.2603 N.pl3   
   5 N5             2.2360    -0.0049     0.2266 N.2     
   6 C6             2.4076     1.2843     0.0281 C.2     
   7 C7             1.2217     2.1357    -0.1605 C.2     
   8 C8             0.9799    -1.9177     0.4766 C.ar    
   9 C9             1.5810    -2.4874     1.5958 C.ar    
  10 C10            1.4906    -3.8484     1.8104 C.ar    
  11 C11            0.7974    -4.6504     0.9056 C.ar    
  12 C12            0.1966    -4.0768    -0.2143 C.ar    
  13 C13            0.2841    -2.7170    -0.4229 C.ar    
  14 C14            3.7646     1.8666    -0.0040 C.2     
  15 N15            4.3070     2.6063    -1.0171 N.pl3   
  16 N16            5.6087     2.9580    -0.6388 N.2     
  17 C17            5.8520     2.4588     0.5468 C.2     
  18 C18            4.7198     1.7712     0.9841 C.2     
  19 C19            3.6744     2.9510    -2.2183 C.ar    
  20 C20            3.8086     4.2341    -2.7322 C.ar    
  21 C21            3.1841     4.5706    -3.9171 C.ar    
  22 C22            2.4256     3.6315    -4.5917 C.ar    
  23 C23            2.2897     2.3531    -4.0823 C.ar    
  24 C24            2.9164     2.0086    -2.9008 C.ar    
  25 O25            1.3248     3.3386    -0.3487 O.2     
  26 C26            0.6992    -6.1130     1.1335 C.ar    
  27 C27            0.0088    -6.9344     0.2385 C.ar    
  28 C28            1.2996    -6.7081     2.2462 C.ar    
  29 N29            1.1880    -8.0150     2.4109 N.ar    
  30 C30            0.5228    -8.7531     1.5445 C.ar    
  31 N31           -0.0538    -8.2327     0.4794 N.ar    
  32 H32           -0.9546     2.0654    -0.2495 H       
  33 H33           -1.0229    -0.3504     0.1374 H       
  34 H34            1.9570    -4.2910     2.6781 H       
  35 H35           -0.3409    -4.6972    -0.9161 H       
  36 H36           -0.1818    -2.2733    -1.2903 H       
  37 H37            6.7751     2.5653     1.0971 H       
  38 H38            4.6136     1.2520     1.9251 H       
  39 H39            4.4005     4.9681    -2.2056 H       
  40 H40            3.2878     5.5685    -4.3171 H       
  41 H41            1.9382     3.8971    -5.5181 H       
  42 H42            1.6964     1.6219    -4.6113 H       
  43 H43            2.8101     1.0099    -2.5037 H       
  44 H44           -0.4664    -6.5152    -0.6361 H       
  45 H45            1.8464    -6.1099     2.9600 H       
  46 H46            0.4520    -9.8180     1.7101 H       
@<TRIPOS>BOND
   1    1    9 1
   2    2    3 2
   3    2    7 1
   4    2   32 1
   5    3    4 1
   6    3   33 1
   7    4    5 1
   8    4    8 1
   9    5    6 2
  10    6    7 1
  11    6   14 1
  12    7   25 2
  13    8    9 ar
  14    8   13 ar
  15    9   10 ar
  16   10   11 ar
  17   10   34 1
  18   11   12 ar
  19   11   26 1
  20   12   13 ar
  21   12   35 1
  22   13   36 1
  23   14   15 1
  24   14   18 2
  25   15   16 1
  26   15   19 1
  27   16   17 2
  28   17   18 1
  29   17   37 1
  30   18   38 1
  31   19   20 ar
  32   19   24 ar
  33   20   21 ar
  34   20   39 1
  35   21   22 ar
  36   21   40 1
  37   22   23 ar
  38   22   41 1
  39   23   24 ar
  40   23   42 1
  41   24   43 1
  42   26   27 ar
  43   26   28 ar
  44   27   31 ar
  45   27   44 1
  46   28   29 ar
  47   28   45 1
  48   29   30 ar
  49   30   31 ar
  50   30   46 1

#	End of record

