#	Name: ASD01881510
#	Creating user name:	WinNT
#	Creation time:	15. 06. 2019 19:42

#	Modifying user name:	WinNT
#	Modification time:	15. 06. 2019 19:42

#	Program:	/corina/corina34_cracker 3.40 0067  02.08.2006

@<TRIPOS>MOLECULE
ASD01881510
  58   62    0    0    0
SMALL
NO_CHARGES


@<TRIPOS>ATOM
   1 C1             0.2518     2.3560     1.1371 C.ar    
   2 C2            -0.0462     1.4729     0.1003 C.ar    
   3 C3             0.9851     0.8180    -0.5748 C.ar    
   4 C4             2.2907     1.0458    -0.2152 C.ar    
   5 C5             2.5954     1.9303     0.8238 C.ar    
   6 C6             1.5614     2.5845     1.4978 C.ar    
   7 C7             3.6082     0.5167    -0.7250 C.3     
   8 N8             4.6494     1.1561     0.0872 N.am    
   9 C9             4.0622     1.9712     0.9801 C.2     
  10 C10            6.0918     0.9410    -0.0517 C.3     
  11 C11            6.5511     1.4634    -1.3886 C.ar    
  12 C12            7.5214     2.4461    -1.4502 C.ar    
  13 C13            7.9430     2.9256    -2.6760 C.ar    
  14 C14            7.3937     2.4218    -3.8416 C.ar    
  15 C15            6.4227     1.4383    -3.7794 C.ar    
  16 C16            6.0059     0.9557    -2.5531 C.ar    
  17 O17            4.6548     2.6464     1.7990 O.2     
  18 C18            1.8786     3.5403     2.6188 C.3     
  19 C19           -1.4585     1.2291    -0.2850 C.2     
  20 Cl20           7.9224     3.0240    -5.3816 Cl      
  21 N21           -1.8780     0.4313    -1.2322 N.2     
  22 O22           -3.0892     0.4566    -1.2924 O.3     
  23 C23           -3.5761     1.2917    -0.3691 C.2     
  24 N24           -2.5527     1.7860     0.2818 N.2     
  25 C25           -5.0296     1.6023    -0.1206 C.3     
  26 N26           -5.4344     2.7463    -0.9485 N.3     
  27 C27           -6.8919     2.9310    -0.9152 C.3     
  28 C28           -7.2642     4.1765    -1.7231 C.3     
  29 N29           -6.7872     4.0219    -3.1044 N.3     
  30 C30           -5.3297     3.8372    -3.1377 C.3     
  31 C31           -4.9574     2.5917    -2.3298 C.3     
  32 C32            6.3958    -0.5555     0.0428 C.3     
  33 H33           -0.5463     2.8659     1.6561 H       
  34 H34            0.7567     0.1332    -1.3781 H       
  35 H35            3.6497    -0.5656    -0.6027 H       
  36 H36            3.7370     0.7808    -1.7746 H       
  37 H37            6.6163     1.4694     0.7444 H       
  38 H38            7.9499     2.8395    -0.5402 H       
  39 H39            8.7008     3.6936    -2.7240 H       
  40 H40            5.9935     1.0447    -4.6890 H       
  41 H41            5.2479     0.1879    -2.5044 H       
  42 H42            2.0054     4.5448     2.2150 H       
  43 H43            1.0610     3.5391     3.3397 H       
  44 H44            2.7989     3.2285     3.1127 H       
  45 H45           -5.6360     0.7342    -0.3791 H       
  46 H46           -5.1743     1.8462     0.9319 H       
  47 H47           -7.3791     2.0574    -1.3485 H       
  48 H48           -7.2192     3.0557     0.1170 H       
  49 H49           -8.3473     4.2990    -1.7239 H       
  50 H50           -6.7990     5.0538    -1.2737 H       
  51 H51           -7.2590     3.2590    -3.5666 H       
  52 H52           -5.0024     3.7125    -4.1699 H       
  53 H53           -4.8425     4.7107    -2.7044 H       
  54 H54           -3.8743     2.4692    -2.3290 H       
  55 H55           -5.4226     1.7144    -2.7792 H       
  56 H56            7.4690    -0.7155    -0.0606 H       
  57 H57            6.0636    -0.9333     1.0098 H       
  58 H58            5.8713    -1.0838    -0.7533 H       
@<TRIPOS>BOND
   1    1    2 ar
   2    1    6 ar
   3    1   33 1
   4    2    3 ar
   5    2   19 1
   6    3    4 ar
   7    3   34 1
   8    4    5 ar
   9    4    7 1
  10    5    6 ar
  11    5    9 1
  12    6   18 1
  13    7    8 1
  14    7   35 1
  15    7   36 1
  16    8    9 am
  17    8   10 1
  18    9   17 2
  19   10   11 1
  20   10   32 1
  21   10   37 1
  22   11   12 ar
  23   11   16 ar
  24   12   13 ar
  25   12   38 1
  26   13   14 ar
  27   13   39 1
  28   14   15 ar
  29   14   20 1
  30   15   16 ar
  31   15   40 1
  32   16   41 1
  33   18   42 1
  34   18   43 1
  35   18   44 1
  36   19   21 2
  37   19   24 1
  38   21   22 1
  39   22   23 1
  40   23   24 2
  41   23   25 1
  42   25   26 1
  43   25   45 1
  44   25   46 1
  45   26   27 1
  46   26   31 1
  47   27   28 1
  48   27   47 1
  49   27   48 1
  50   28   29 1
  51   28   49 1
  52   28   50 1
  53   29   30 1
  54   29   51 1
  55   30   31 1
  56   30   52 1
  57   30   53 1
  58   31   54 1
  59   31   55 1
  60   32   56 1
  61   32   57 1
  62   32   58 1

#	End of record

