#	Name: ASD03330918
#	Creating user name:	WinNT
#	Creation time:	15. 06. 2019 20:38

#	Modifying user name:	WinNT
#	Modification time:	15. 06. 2019 20:38

#	Program:	/corina/corina34_cracker 3.40 0067  02.08.2006

@<TRIPOS>MOLECULE
ASD03330918
  46   49    0    0    0
SMALL
NO_CHARGES


@<TRIPOS>ATOM
   1 C1            -0.0180     1.4748     0.0102 C.ar    
   2 C2             0.0021    -0.0041     0.0020 C.2     
   3 N3            -1.0205    -0.8140     0.3849 N.pl3   
   4 C4            -0.5978    -2.1055     0.2277 C.2     
   5 C5             0.6702    -2.0565    -0.2484 C.2     
   6 N6             1.0101    -0.7564    -0.3822 N.2     
   7 C7             1.5254    -3.2177    -0.5690 C.2     
   8 N8             1.1985    -4.4836    -0.4463 N.2     
   9 C9            -0.9762     2.1576     0.7600 C.ar    
  10 C10           -2.3457    -0.4320     0.8785 C.3     
  11 C11           -3.2794    -1.6425     0.7676 C.3     
  12 C12           -2.6188    -2.8644     1.4120 C.3     
  13 C13           -1.4358    -3.3173     0.5453 C.3     
  14 C14           -0.9900     3.5388     0.7643 C.ar    
  15 C15           -0.0530     4.2458     0.0240 C.ar    
  16 C16            0.8995     3.5707    -0.7219 C.ar    
  17 C17            0.9251     2.1917    -0.7276 C.ar    
  18 F18           -0.0700     5.5967     0.0304 F       
  19 F19           -1.9169     4.2021     1.4896 F       
  20 O20            2.7850    -3.1755    -1.0478 O.3     
  21 C21            3.1779    -4.4539    -1.1923 C.2     
  22 N22            2.1893    -5.2155    -0.8178 N.2     
  23 C23            4.5179    -4.9209    -1.6998 C.3     
  24 C24            4.3195    -5.7690    -2.9576 C.3     
  25 C25            5.3875    -3.7074    -2.0347 C.3     
  26 C26            5.2070    -5.7603    -0.6221 C.3     
  27 H27           -1.7059     1.6073     1.3355 H       
  28 H28           -2.2721    -0.1213     1.9206 H       
  29 H29           -2.7374     0.3882     0.2769 H       
  30 H30           -4.2171    -1.4253     1.2790 H       
  31 H31           -3.4800    -1.8508    -0.2834 H       
  32 H32           -2.2609    -2.6018     2.4075 H       
  33 H33           -3.3453    -3.6734     1.4875 H       
  34 H34           -1.8053    -3.7619    -0.3788 H       
  35 H35           -0.8370    -4.0462     1.0915 H       
  36 H36            1.6261     4.1255    -1.2969 H       
  37 H37            1.6686     1.6672    -1.3094 H       
  38 H38            3.8286    -5.1710    -3.7254 H       
  39 H39            5.2887    -6.1068    -3.3247 H       
  40 H40            3.7000    -6.6335    -2.7190 H       
  41 H41            5.5288    -3.1032    -1.1386 H       
  42 H42            6.3567    -4.0452    -2.4018 H       
  43 H43            4.8965    -3.1094    -2.8025 H       
  44 H44            4.5875    -6.6248    -0.3835 H       
  45 H45            6.1762    -6.0980    -0.9891 H       
  46 H46            5.3483    -5.1561     0.2740 H       
@<TRIPOS>BOND
   1    1    2 1
   2    1    9 ar
   3    1   17 ar
   4    2    3 1
   5    2    6 2
   6    3    4 1
   7    3   10 1
   8    4    5 2
   9    4   13 1
  10    5    6 1
  11    5    7 1
  12    7    8 2
  13    7   20 1
  14    8   22 1
  15    9   14 ar
  16    9   27 1
  17   10   11 1
  18   10   28 1
  19   10   29 1
  20   11   12 1
  21   11   30 1
  22   11   31 1
  23   12   13 1
  24   12   32 1
  25   12   33 1
  26   13   34 1
  27   13   35 1
  28   14   15 ar
  29   14   19 1
  30   15   16 ar
  31   15   18 1
  32   16   17 ar
  33   16   36 1
  34   17   37 1
  35   20   21 1
  36   21   22 2
  37   21   23 1
  38   23   24 1
  39   23   25 1
  40   23   26 1
  41   24   38 1
  42   24   39 1
  43   24   40 1
  44   25   41 1
  45   25   42 1
  46   25   43 1
  47   26   44 1
  48   26   45 1
  49   26   46 1

#	End of record

