#	Name: ASD02039179
#	Creating user name:	WinNT
#	Creation time:	15. 06. 2019 20:17

#	Modifying user name:	WinNT
#	Modification time:	15. 06. 2019 20:17

#	Program:	/corina/corina34_cracker 3.40 0067  02.08.2006

@<TRIPOS>MOLECULE
ASD02039179
  60   64    0    0    0
SMALL
NO_CHARGES


@<TRIPOS>ATOM
   1 N1            -0.0815     1.2360     0.0376 N.am    
   2 C2            -0.1359    -0.1083     0.0176 C.2     
   3 C3             1.1251    -0.9299     0.0194 C.3     
   4 C4             2.2114    -0.2181    -0.7876 C.3     
   5 C5             2.2991     1.2219    -0.3537 C.ar    
   6 C6             3.5170     1.8728    -0.3497 C.ar    
   7 C7             3.5939     3.1947     0.0488 C.ar    
   8 C8             2.4527     3.8683     0.4446 C.ar    
   9 C9             1.2318     3.2227     0.4427 C.ar    
  10 C10            1.1514     1.8954     0.0425 C.ar    
  11 O11           -1.2136    -0.6645    -0.0017 O.2     
  12 C12           -1.3227     2.0142     0.0483 C.3     
  13 C13           -1.6793     2.4104    -1.3613 C.ar    
  14 C14           -2.3887     1.5373    -2.1652 C.ar    
  15 C15           -2.7168     1.8982    -3.4577 C.ar    
  16 C16           -2.3339     3.1378    -3.9489 C.ar    
  17 C17           -1.6222     4.0121    -3.1403 C.ar    
  18 C18           -1.3014     3.6487    -1.8467 C.ar    
  19 O19           -2.6550     3.4949    -5.2202 O.3     
  20 C20           -2.2282     4.7863    -5.6587 C.3     
  21 C21            4.9241     3.9028     0.0522 C.3     
  22 C22            5.1526     4.5656    -1.3077 C.3     
  23 O23            6.7067     6.5417    -0.9461 O.3     
  24 N24            7.8863     6.8016    -1.0569 N.2     
  25 C25            8.5385     5.7552    -1.4885 C.2     
  26 N26            7.6382     4.7621    -1.6513 N.2     
  27 C27            6.4829     5.2737    -1.3043 C.2     
  28 N28            9.9038     5.6784    -1.7342 N.pl3   
  29 C29           10.6983     6.8246    -1.6312 C.ar    
  30 C30           12.0540     6.7086    -1.3517 C.ar    
  31 C31           12.8367     7.8430    -1.2510 C.ar    
  32 C32           12.2699     9.0945    -1.4281 C.ar    
  33 C33           10.9198     9.2118    -1.7061 C.ar    
  34 C34           10.1344     8.0806    -1.8139 C.ar    
  35 Cl35          13.2553    10.5180    -1.3005 Cl      
  36 Cl36          14.5311     7.6996    -0.9017 Cl      
  37 H37            1.4669    -1.0661     1.0454 H       
  38 H38            0.9231    -1.9041    -0.4258 H       
  39 H39            3.1701    -0.7079    -0.6170 H       
  40 H40            1.9643    -0.2634    -1.8483 H       
  41 H41            4.4100     1.3491    -0.6575 H       
  42 H42            2.5164     4.9005     0.7560 H       
  43 H43            0.3411     3.7492     0.7523 H       
  44 H44           -2.1263     1.4107     0.4703 H       
  45 H45           -1.1847     2.9101     0.6536 H       
  46 H46           -2.6862     0.5722    -1.7824 H       
  47 H47           -3.2706     1.2157    -4.0853 H       
  48 H48           -1.3229     4.9777    -3.5205 H       
  49 H49           -0.7515     4.3308    -1.2152 H       
  50 H50           -2.6691     5.5512    -5.0194 H       
  51 H51           -1.1414     4.8481    -5.6028 H       
  52 H52           -2.5487     4.9445    -6.6885 H       
  53 H53            4.9287     4.6638     0.8326 H       
  54 H54            5.7190     3.1818     0.2431 H       
  55 H55            5.1480     3.8047    -2.0881 H       
  56 H56            4.3577     5.2866    -1.4987 H       
  57 H57           10.3059     4.8298    -1.9772 H       
  58 H58           12.4957     5.7329    -1.2129 H       
  59 H59           10.4802    10.1887    -1.8431 H       
  60 H60            9.0815     8.1730    -2.0357 H       
@<TRIPOS>BOND
   1    1    2 am
   2    1   10 1
   3    1   12 1
   4    2    3 1
   5    2   11 2
   6    3    4 1
   7    3   37 1
   8    3   38 1
   9    4    5 1
  10    4   39 1
  11    4   40 1
  12    5    6 ar
  13    5   10 ar
  14    6    7 ar
  15    6   41 1
  16    7    8 ar
  17    7   21 1
  18    8    9 ar
  19    8   42 1
  20    9   10 ar
  21    9   43 1
  22   12   13 1
  23   12   44 1
  24   12   45 1
  25   13   14 ar
  26   13   18 ar
  27   14   15 ar
  28   14   46 1
  29   15   16 ar
  30   15   47 1
  31   16   17 ar
  32   16   19 1
  33   17   18 ar
  34   17   48 1
  35   18   49 1
  36   19   20 1
  37   20   50 1
  38   20   51 1
  39   20   52 1
  40   21   22 1
  41   21   53 1
  42   21   54 1
  43   22   27 1
  44   22   55 1
  45   22   56 1
  46   23   24 1
  47   23   27 1
  48   24   25 2
  49   25   26 1
  50   25   28 1
  51   26   27 2
  52   28   29 1
  53   28   57 1
  54   29   30 ar
  55   29   34 ar
  56   30   31 ar
  57   30   58 1
  58   31   32 ar
  59   31   36 1
  60   32   33 ar
  61   32   35 1
  62   33   34 ar
  63   33   59 1
  64   34   60 1

#	End of record

