#	Name: ASD01816637
#	Creating user name:	WinNT
#	Creation time:	15. 06. 2019 19:35

#	Modifying user name:	WinNT
#	Modification time:	15. 06. 2019 19:35

#	Program:	/corina/corina34_cracker 3.40 0067  02.08.2006

@<TRIPOS>MOLECULE
ASD01816637
  43   47    0    0    0
SMALL
NO_CHARGES


@<TRIPOS>ATOM
   1 C1            -0.0167     1.3813     0.0096 C.ar    
   2 C2             0.0021    -0.0041     0.0020 C.ar    
   3 C3             1.1983    -0.6909    -0.0131 C.ar    
   4 C4             2.4015     0.0060    -0.0209 C.ar    
   5 C5             2.3790     1.4106    -0.0132 C.ar    
   6 C6             1.1663     2.0916     0.0022 C.ar    
   7 N7             3.6053    -0.6771    -0.0356 N.pl3   
   8 C8             4.7970    -0.0585    -0.0437 C.2     
   9 C9             4.9000     1.3103    -0.0374 C.2     
  10 C10            3.6670     2.1302    -0.0217 C.2     
  11 C11            5.9971     2.2730    -0.0427 C.2     
  12 N12            5.4245     3.4961    -0.0311 N.am    
  13 N13            4.0322     3.3798    -0.0187 N.2     
  14 O14            7.1912     2.0231    -0.0547 O.2     
  15 C15            6.1235     4.7036    -0.0313 C.ar    
  16 C16            3.5779    -2.1419    -0.0422 C.3     
  17 C17            3.5549    -2.6375    -1.4652 C.ar    
  18 C18            4.7416    -2.8869    -2.1289 C.ar    
  19 C19            4.7218    -3.3419    -3.4337 C.ar    
  20 C20            3.5127    -3.5478    -4.0762 C.ar    
  21 C21            2.3247    -3.2976    -3.4104 C.ar    
  22 C22            2.3470    -2.8477    -2.1039 C.ar    
  23 F23            3.4921    -3.9921    -5.3519 F       
  24 C24            5.4237     5.9040    -0.0187 C.ar    
  25 N25            7.4477     4.6947    -0.0381 N.ar    
  26 C26            8.1471     5.8139    -0.0382 C.ar    
  27 C27            7.5152     7.0443    -0.0306 C.ar    
  28 C28            6.1289     7.0954    -0.0186 C.ar    
  29 Cl29           9.8815     5.7410    -0.0472 Cl      
  30 H30           -0.9602     1.9068     0.0170 H       
  31 H31           -0.9288    -0.5516     0.0083 H       
  32 H32            1.2004    -1.7709    -0.0186 H       
  33 H33            1.1506     3.1715     0.0077 H       
  34 H34            5.6983    -0.6535    -0.0551 H       
  35 H35            4.4658    -2.5241     0.4614 H       
  36 H36            2.6862    -2.4909     0.4786 H       
  37 H37            5.6846    -2.7259    -1.6277 H       
  38 H38            5.6490    -3.5364    -3.9522 H       
  39 H39            1.3810    -3.4578    -3.9106 H       
  40 H40            1.4205    -2.6525    -1.5844 H       
  41 H41            4.3437     5.9075    -0.0094 H       
  42 H42            8.0949     7.9555    -0.0300 H       
  43 H43            5.6114     8.0433    -0.0129 H       
@<TRIPOS>BOND
   1    1    2 ar
   2    1    6 ar
   3    1   30 1
   4    2    3 ar
   5    2   31 1
   6    3    4 ar
   7    3   32 1
   8    4    5 ar
   9    4    7 1
  10    5    6 ar
  11    5   10 1
  12    6   33 1
  13    7    8 1
  14    7   16 1
  15    8    9 2
  16    8   34 1
  17    9   10 1
  18    9   11 1
  19   10   13 2
  20   11   12 am
  21   11   14 2
  22   12   13 1
  23   12   15 1
  24   15   24 ar
  25   15   25 ar
  26   16   17 1
  27   16   35 1
  28   16   36 1
  29   17   18 ar
  30   17   22 ar
  31   18   19 ar
  32   18   37 1
  33   19   20 ar
  34   19   38 1
  35   20   21 ar
  36   20   23 1
  37   21   22 ar
  38   21   39 1
  39   22   40 1
  40   24   28 ar
  41   24   41 1
  42   25   26 ar
  43   26   27 ar
  44   26   29 1
  45   27   28 ar
  46   27   42 1
  47   28   43 1

#	End of record

