#	Name: ASD01148722
#	Creating user name:	WinNT
#	Creation time:	15. 06. 2019 19:03

#	Modifying user name:	WinNT
#	Modification time:	15. 06. 2019 19:03

#	Program:	/corina/corina34_cracker 3.40 0067  02.08.2006

@<TRIPOS>MOLECULE
ASD01148722
  57   60    0    0    0
SMALL
NO_CHARGES


@<TRIPOS>ATOM
   1 N1            -0.0159     1.3406     0.0806 N.pl3   
   2 C2             0.0025     0.0050    -0.1114 C.2     
   3 C3             1.3184    -0.4072    -0.1549 C.2     
   4 C4             2.1214     0.7497     0.0213 C.2     
   5 C5             1.2769     1.8040     0.1629 C.2     
   6 C6             1.7983    -1.7849    -0.3471 C.2     
   7 O7             1.0015    -2.6921    -0.4868 O.2     
   8 O8             3.1215    -2.0409    -0.3681 O.3     
   9 C9             1.6786     3.2109     0.3698 C.ar    
  10 C10            0.7783     4.1194     0.9312 C.ar    
  11 C11            1.1534     5.4299     1.1235 C.ar    
  12 C12            2.4324     5.8507     0.7580 C.ar    
  13 C13            3.3322     4.9440     0.1968 C.ar    
  14 C14            2.9609     3.6317     0.0094 C.ar    
  15 C15            4.4459     9.0268     0.8164 C.ar    
  16 C16            4.1123     7.7048     0.6063 C.ar    
  17 C17            2.8355     7.2621     0.9655 C.ar    
  18 C18            1.9490     8.1874     1.5255 C.ar    
  19 C19            2.3649     9.4910     1.7006 C.ar    
  20 N20            3.5792     9.8678     1.3479 N.ar    
  21 C21           -1.2064    -0.8834    -0.2539 C.3     
  22 C22           -1.1688     2.1310     0.1752 C.ar    
  23 C23           -2.0122     2.0030     1.2710 C.ar    
  24 C24           -3.1479     2.7834     1.3614 C.ar    
  25 C25           -3.4460     3.6915     0.3617 C.ar    
  26 C26           -2.6085     3.8209    -0.7308 C.ar    
  27 C27           -1.4675     3.0478    -0.8236 C.ar    
  28 S28           -4.2186     2.6217     2.7513 S.o2    
  29 O29           -5.4881     3.0365     2.2659 O.2     
  30 O30           -4.0063     1.2917     3.2044 O.2     
  31 C31           -3.5775     3.8151     3.9578 C.3     
  32 C32            3.5225    -3.4229    -0.5618 C.3     
  33 C33            5.0497    -3.5163    -0.5570 C.3     
  34 H34            3.2007     0.7851     0.0393 H       
  35 H35           -0.2119     3.7939     1.2139 H       
  36 H36            0.4573     6.1326     1.5572 H       
  37 H37            4.3218     5.2708    -0.0865 H       
  38 H38            3.6591     2.9289    -0.4205 H       
  39 H39            5.4311     9.3770     0.5464 H       
  40 H40            4.8266     7.0220     0.1705 H       
  41 H41            0.9535     7.8860     1.8162 H       
  42 H42            1.6873    10.2130     2.1319 H       
  43 H43           -1.4856    -0.9512    -1.3053 H       
  44 H44           -0.9727    -1.8784     0.1249 H       
  45 H45           -2.0353    -0.4632     0.3158 H       
  46 H46           -1.7804     1.2935     2.0516 H       
  47 H47           -4.3349     4.3005     0.4344 H       
  48 H48           -2.8441     4.5306    -1.5100 H       
  49 H49           -0.8110     3.1530    -1.6747 H       
  50 H50           -3.6129     4.8176     3.5313 H       
  51 H51           -4.1876     3.7825     4.8605 H       
  52 H52           -2.5468     3.5622     4.2065 H       
  53 H53            3.1186    -4.0349     0.2447 H       
  54 H54            3.1396    -3.7819    -1.5171 H       
  55 H55            5.4326    -3.1573     0.3983 H       
  56 H56            5.3507    -4.5537    -0.7024 H       
  57 H57            5.4536    -2.9043    -1.3635 H       
@<TRIPOS>BOND
   1    1    2 1
   2    1    5 1
   3    1   22 1
   4    2    3 2
   5    2   21 1
   6    3    4 1
   7    3    6 1
   8    4    5 2
   9    4   34 1
  10    5    9 1
  11    6    7 2
  12    6    8 1
  13    8   32 1
  14    9   10 ar
  15    9   14 ar
  16   10   11 ar
  17   10   35 1
  18   11   12 ar
  19   11   36 1
  20   12   13 ar
  21   12   17 1
  22   13   14 ar
  23   13   37 1
  24   14   38 1
  25   15   16 ar
  26   15   20 ar
  27   15   39 1
  28   16   17 ar
  29   16   40 1
  30   17   18 ar
  31   18   19 ar
  32   18   41 1
  33   19   20 ar
  34   19   42 1
  35   21   43 1
  36   21   44 1
  37   21   45 1
  38   22   23 ar
  39   22   27 ar
  40   23   24 ar
  41   23   46 1
  42   24   25 ar
  43   24   28 1
  44   25   26 ar
  45   25   47 1
  46   26   27 ar
  47   26   48 1
  48   27   49 1
  49   28   29 2
  50   28   30 2
  51   28   31 1
  52   31   50 1
  53   31   51 1
  54   31   52 1
  55   32   33 1
  56   32   53 1
  57   32   54 1
  58   33   55 1
  59   33   56 1
  60   33   57 1

#	End of record

