#	Name: ASD08830186
#	Creating user name:	WinNT
#	Creation time:	15. 06. 2019 21:19

#	Modifying user name:	WinNT
#	Modification time:	15. 06. 2019 21:19

#	Program:	/corina/corina34_cracker 3.40 0067  02.08.2006

@<TRIPOS>MOLECULE
ASD08830186
  35   37    0    0    0
SMALL
NO_CHARGES


@<TRIPOS>ATOM
   1 C1            -0.0179     1.4667     0.0101 C.2     
   2 C2             0.0021    -0.0041     0.0020 C.2     
   3 C3            -1.2926    -0.7753     0.0102 C.3     
   4 C4            -0.9927    -2.2755    -0.0007 C.3     
   5 N5            -2.2547    -3.0273     0.0073 N.3     
   6 O6             1.0603    -0.5960    -0.0113 O.2     
   7 N7            -1.0875     2.1909     0.0298 N.2     
   8 C8            -2.0181    -4.4568    -0.2410 C.3     
   9 C9            -3.3490    -5.2097    -0.1649 C.3     
  10 O10           -4.2665    -4.6418    -1.1035 O.3     
  11 C11           -4.5205    -3.2506    -0.8906 C.3     
  12 C12           -3.2015    -2.4779    -0.9741 C.3     
  13 S13            1.4110     2.4919     0.0020 S.3     
  14 C14            0.3908     3.9281     0.0194 C.ar    
  15 C15           -0.9511     3.5153     0.0348 C.ar    
  16 C16            0.7091     5.2869     0.0233 C.ar    
  17 C17           -0.2928     6.2282     0.0375 C.ar    
  18 C18           -1.6244     5.8289     0.0481 C.ar    
  19 C19           -1.9577     4.5117     0.0506 C.ar    
  20 H20           -1.8592    -0.5245     0.9070 H       
  21 H21           -1.8762    -0.5150    -0.8728 H       
  22 H22           -0.4261    -2.5263    -0.8975 H       
  23 H23           -0.4091    -2.5358     0.8824 H       
  24 H24           -1.5824    -4.5869    -1.2316 H       
  25 H25           -1.3346    -4.8488     0.5123 H       
  26 H26           -3.1869    -6.2606    -0.4046 H       
  27 H27           -3.7584    -5.1242     0.8417 H       
  28 H28           -5.2057    -2.8846    -1.6552 H       
  29 H29           -4.9640    -3.1082     0.0948 H       
  30 H30           -3.3819    -1.4252    -0.7560 H       
  31 H31           -2.7847    -2.5763    -1.9764 H       
  32 H32            1.7429     5.5991     0.0154 H       
  33 H33           -0.0450     7.2794     0.0408 H       
  34 H34           -2.4045     6.5757     0.0592 H       
  35 H35           -2.9982     4.2223     0.0586 H       
@<TRIPOS>BOND
   1    1    2 1
   2    1   13 1
   3    1    7 2
   4    2    3 1
   5    2    6 2
   6    3    4 1
   7    3   20 1
   8    3   21 1
   9    4    5 1
  10    4   22 1
  11    4   23 1
  12    5    8 1
  13    5   12 1
  14    7   15 1
  15    8    9 1
  16    8   24 1
  17    8   25 1
  18    9   10 1
  19    9   26 1
  20    9   27 1
  21   10   11 1
  22   11   12 1
  23   11   28 1
  24   11   29 1
  25   12   30 1
  26   12   31 1
  27   13   14 1
  28   14   15 ar
  29   14   16 ar
  30   15   19 ar
  31   16   17 ar
  32   16   32 1
  33   17   18 ar
  34   17   33 1
  35   18   19 ar
  36   18   34 1
  37   19   35 1

#	End of record

