#	Name: ASD01910620
#	Creating user name:	WinNT
#	Creation time:	15. 06. 2019 19:56

#	Modifying user name:	WinNT
#	Modification time:	15. 06. 2019 19:56

#	Program:	/corina/corina34_cracker 3.40 0067  02.08.2006

@<TRIPOS>MOLECULE
ASD01910620
  46   49    0    0    0
SMALL
NO_CHARGES


@<TRIPOS>ATOM
   1 C1            -0.0167     1.3820     0.0096 C.ar    
   2 C2             0.0021    -0.0041     0.0020 C.ar    
   3 C3             1.2090    -0.6859    -0.0127 C.ar    
   4 C4             2.3979     0.0122    -0.0203 C.ar    
   5 C5             2.3848     1.4084    -0.0131 C.ar    
   6 C6             1.1663     2.0900     0.0021 C.ar    
   7 C7             3.6556     2.1618    -0.0212 C.2     
   8 N8             3.7943     3.4760    -0.0158 N.2     
   9 C9             5.1178     3.6980    -0.0271 C.2     
  10 N10            5.7111     2.5410    -0.0385 N.2     
  11 O11            4.8941     1.6447    -0.0295 O.3     
  12 C12            5.7940     5.0448    -0.0271 C.3     
  13 C13            6.6794     5.1717     1.2148 C.3     
  14 C14            7.3411     6.5516     1.2327 C.3     
  15 C15            8.2249     6.7059    -0.0091 C.3     
  16 N16            7.4117     6.4421    -1.2040 N.am    
  17 C17            6.6603     5.1820    -1.2831 C.3     
  18 C18            7.3561     7.3389    -2.2085 C.2     
  19 C19            8.1156     8.5987    -2.1146 C.2     
  20 O20            6.6793     7.1088    -3.1923 O.2     
  21 F21           -1.1601    -0.6930     0.0094 F       
  22 C22            7.7142     9.8035    -1.5911 C.2     
  23 O23            8.7470    10.6374    -1.7328 O.3     
  24 N24            9.7036    10.1229    -2.2583 N.2     
  25 C25            9.4926     8.8741    -2.5526 C.2     
  26 C26           10.4507     7.9161    -3.2123 C.3     
  27 C27            6.3744    10.1210    -0.9785 C.3     
  28 H28           -0.9598     1.9083     0.0170 H       
  29 H29            1.2180    -1.7658    -0.0179 H       
  30 H30            3.3376    -0.5199    -0.0314 H       
  31 H31            1.1505     3.1699     0.0074 H       
  32 H32            5.0391     5.8310    -0.0175 H       
  33 H33            6.0693     5.0499     2.1097 H       
  34 H34            7.4491     4.4002     1.1924 H       
  35 H35            6.5720     7.3239     1.2301 H       
  36 H36            7.9531     6.6500     2.1293 H       
  37 H37            8.6199     7.7208    -0.0526 H       
  38 H38            9.0480     5.9929     0.0374 H       
  39 H39            7.3558     4.3447    -1.3405 H       
  40 H40            6.0229     5.1915    -2.1673 H       
  41 H41           11.0395     7.4077    -2.4488 H       
  42 H42            9.8898     7.1803    -3.7884 H       
  43 H43           11.1159     8.4675    -3.8768 H       
  44 H44            6.4061     9.9149     0.0914 H       
  45 H45            6.1418    11.1737    -1.1391 H       
  46 H46            5.6064     9.5039    -1.4448 H       
@<TRIPOS>BOND
   1    1    2 ar
   2    1    6 ar
   3    1   28 1
   4    2    3 ar
   5    2   21 1
   6    3    4 ar
   7    3   29 1
   8    4    5 ar
   9    4   30 1
  10    5    6 ar
  11    5    7 1
  12    6   31 1
  13    7    8 2
  14    7   11 1
  15    8    9 1
  16    9   10 2
  17    9   12 1
  18   10   11 1
  19   12   13 1
  20   12   17 1
  21   12   32 1
  22   13   14 1
  23   13   33 1
  24   13   34 1
  25   14   15 1
  26   14   35 1
  27   14   36 1
  28   15   16 1
  29   15   37 1
  30   15   38 1
  31   16   17 1
  32   16   18 am
  33   17   39 1
  34   17   40 1
  35   18   19 1
  36   18   20 2
  37   19   22 2
  38   19   25 1
  39   22   23 1
  40   22   27 1
  41   23   24 1
  42   24   25 2
  43   25   26 1
  44   26   41 1
  45   26   42 1
  46   26   43 1
  47   27   44 1
  48   27   45 1
  49   27   46 1

#	End of record

