#	Name: ASD02170001
#	Creating user name:	WinNT
#	Creation time:	15. 06. 2019 20:18

#	Modifying user name:	WinNT
#	Modification time:	15. 06. 2019 20:18

#	Program:	/corina/corina34_cracker 3.40 0067  02.08.2006

@<TRIPOS>MOLECULE
ASD02170001
  23   23    0    0    0
SMALL
NO_CHARGES


@<TRIPOS>ATOM
   1 C1            -0.0167     1.3781     0.0096 C.ar    
   2 C2             0.0021    -0.0041     0.0020 C.ar    
   3 C3             1.2084    -0.6789    -0.0132 C.ar    
   4 C4             2.3961     0.0285    -0.0212 C.ar    
   5 C5             2.3773     1.4107    -0.0145 C.ar    
   6 C6             1.1709     2.0855     0.0021 C.ar    
   7 C7             1.1505     3.5924     0.0089 C.3     
   8 C8             1.1272     4.1086    -1.4312 C.3     
   9 C9             0.9830     5.6087    -1.4249 C.2     
  10 O10           -0.2242     6.1661    -1.2410 O.3     
  11 O11            1.9540     6.3096    -1.5853 O.2     
  12 N12            2.3801     3.7400    -2.1039 N.3     
  13 H13           -0.9592     1.9054     0.0170 H       
  14 H14           -0.9258    -0.5567     0.0083 H       
  15 H15            1.2231    -1.7588    -0.0184 H       
  16 H16            3.3386    -0.4987    -0.0324 H       
  17 H17            3.3052     1.9634    -0.0205 H       
  18 H18            0.2615     3.9413     0.5343 H       
  19 H19            2.0412     3.9656     0.5143 H       
  20 H20            0.2853     3.6649    -1.9627 H       
  21 H21           -0.2668     7.1321    -1.2448 H       
  22 H22            2.3630     4.0131    -3.0750 H       
  23 H23            3.1761     4.1395    -1.6298 H       
@<TRIPOS>BOND
   1    1    2 ar
   2    1    6 ar
   3    1   13 1
   4    2    3 ar
   5    2   14 1
   6    3    4 ar
   7    3   15 1
   8    4    5 ar
   9    4   16 1
  10    5    6 ar
  11    5   17 1
  12    6    7 1
  13    7    8 1
  14    7   18 1
  15    7   19 1
  16    8    9 1
  17    8   12 1
  18    8   20 1
  19    9   10 1
  20    9   11 2
  21   10   21 1
  22   12   22 1
  23   12   23 1

#	End of record

