#	Name: ASD03330936
#	Creating user name:	WinNT
#	Creation time:	15. 06. 2019 20:38

#	Modifying user name:	WinNT
#	Modification time:	15. 06. 2019 20:38

#	Program:	/corina/corina34_cracker 3.40 0067  02.08.2006

@<TRIPOS>MOLECULE
ASD03330936
  76   78    0    0    0
SMALL
NO_CHARGES


@<TRIPOS>ATOM
   1 N1            -0.3668     0.6304     0.5455 N.pl3   
   2 C2            -0.4830    -0.7176     0.4941 C.2     
   3 C3             0.6595    -1.6965     0.4230 C.3     
   4 N4             1.6670    -1.3373     1.4332 N.3     
   5 C5             2.6417    -0.3871     0.8935 C.3     
   6 C6             1.9843     0.5543    -0.1119 C.3     
   7 C7             0.8951     1.3760     0.5823 C.3     
   8 C8            -1.6193     1.1510     0.5682 C.2     
   9 N9            -2.4832     0.1759     0.5505 N.2     
  10 C10           -1.8126    -1.0053     0.5072 C.2     
  11 C11           -2.4146    -2.3497     0.4785 C.2     
  12 O12           -1.7019    -3.3344     0.4390 O.2     
  13 N13           -3.7551    -2.4883     0.4959 N.am    
  14 C14            2.3351    -2.5351     1.9594 C.3     
  15 N15           -3.7420     4.8120     0.6778 N.am    
  16 C16           -3.0952     4.4856    -0.6004 C.3     
  17 C17           -2.7835     2.9860    -0.6266 C.3     
  18 C18           -1.9567     2.6192     0.6079 C.3     
  19 C19           -2.7631     2.9230     1.8727 C.3     
  20 C20           -3.0745     4.4219     1.9272 C.3     
  21 C21           -4.9225     5.4617     0.7038 C.2     
  22 O22           -5.4825     5.6599     1.7612 O.2     
  23 C23           -5.5468     5.9420    -0.5810 C.3     
  24 C24           -7.0005     6.3433    -0.3229 C.3     
  25 C25           -4.7693     7.1510    -1.1051 C.3     
  26 C26           -5.7437    -3.7409    -0.1088 C.2     
  27 C27           -4.3537    -3.8251     0.4674 C.3     
  28 C28           -4.4244    -4.3827     1.8904 C.3     
  29 C29           -5.1906    -3.4051     2.7838 C.3     
  30 O30           -6.3810    -2.7141    -0.0073 O.2     
  31 N31           -6.2785    -4.8067    -0.7368 N.am    
  32 C32           -7.5818    -4.6907    -1.3957 C.3     
  33 C33           -5.1461    -5.7317     1.8743 C.3     
  34 C34           -3.0073    -4.5690     2.4362 C.3     
  35 H35            0.2897    -2.7029     0.6192 H       
  36 H36            1.1094    -1.6598    -0.5691 H       
  37 H37            3.0618     0.1986     1.7112 H       
  38 H38            3.4425    -0.9369     0.3992 H       
  39 H39            2.7368     1.2259    -0.5251 H       
  40 H40            1.5395    -0.0296    -0.9178 H       
  41 H41            0.7712     2.3274     0.0651 H       
  42 H42            1.1806     1.5579     1.6184 H       
  43 H43           -4.3235    -1.7029     0.5274 H       
  44 H44            2.8303    -3.0626     1.1442 H       
  45 H45            3.0748    -2.2409     2.7041 H       
  46 H46            1.5961    -3.1904     2.4204 H       
  47 H47           -3.7657     4.7339    -1.4232 H       
  48 H48           -2.1695     5.0530    -0.6968 H       
  49 H49           -3.7154     2.4206    -0.6214 H       
  50 H50           -2.2178     2.7476    -1.5273 H       
  51 H51           -1.0364     3.2033     0.6153 H       
  52 H52           -3.6952     2.3582     1.8543 H       
  53 H53           -2.1828     2.6398     2.7509 H       
  54 H54           -2.1471     4.9841     2.0369 H       
  55 H55           -3.7314     4.6282     2.7722 H       
  56 H56           -5.5165     5.1421    -1.3209 H       
  57 H57           -7.0307     7.1432     0.4169 H       
  58 H58           -7.4520     6.6906    -1.2522 H       
  59 H59           -7.5544     5.4819     0.0504 H       
  60 H60           -3.7156     6.8903    -1.2040 H       
  61 H61           -5.1642     7.4430    -2.0781 H       
  62 H62           -4.8741     7.9810    -0.4064 H       
  63 H63           -3.7434    -4.4834    -0.1509 H       
  64 H64           -6.2002    -3.2724     2.3950 H       
  65 H65           -5.2410    -3.8023     3.7976 H       
  66 H66           -4.6764    -2.4440     2.7953 H       
  67 H67           -5.8005    -5.6506    -0.7526 H       
  68 H68           -8.3370    -4.4119    -0.6608 H       
  69 H69           -7.5301    -3.9266    -2.1713 H       
  70 H70           -7.8481    -5.6473    -1.8453 H       
  71 H71           -4.5996    -6.4286     1.2389 H       
  72 H72           -5.1976    -6.1284     2.8883 H       
  73 H73           -6.1553    -5.5992     1.4843 H       
  74 H74           -2.4931    -3.6079     2.4477 H       
  75 H75           -3.0576    -4.9662     3.4500 H       
  76 H76           -2.4614    -5.2655     1.7998 H       
@<TRIPOS>BOND
   1    1    2 1
   2    1    7 1
   3    1    8 1
   4    2    3 1
   5    2   10 2
   6    3    4 1
   7    3   35 1
   8    3   36 1
   9    4    5 1
  10    4   14 1
  11    5    6 1
  12    5   37 1
  13    5   38 1
  14    6    7 1
  15    6   39 1
  16    6   40 1
  17    7   41 1
  18    7   42 1
  19    8    9 2
  20    8   18 1
  21    9   10 1
  22   10   11 1
  23   11   12 2
  24   11   13 am
  25   13   27 1
  26   13   43 1
  27   14   44 1
  28   14   45 1
  29   14   46 1
  30   15   16 1
  31   15   20 1
  32   15   21 am
  33   16   17 1
  34   16   47 1
  35   16   48 1
  36   17   18 1
  37   17   49 1
  38   17   50 1
  39   18   19 1
  40   18   51 1
  41   19   20 1
  42   19   52 1
  43   19   53 1
  44   20   54 1
  45   20   55 1
  46   21   22 2
  47   21   23 1
  48   23   24 1
  49   23   25 1
  50   23   56 1
  51   24   57 1
  52   24   58 1
  53   24   59 1
  54   25   60 1
  55   25   61 1
  56   25   62 1
  57   26   30 2
  58   26   31 am
  59   26   27 1
  60   27   28 1
  61   27   63 1
  62   28   29 1
  63   28   33 1
  64   28   34 1
  65   29   64 1
  66   29   65 1
  67   29   66 1
  68   31   32 1
  69   31   67 1
  70   32   68 1
  71   32   69 1
  72   32   70 1
  73   33   71 1
  74   33   72 1
  75   33   73 1
  76   34   74 1
  77   34   75 1
  78   34   76 1

#	End of record

