#	Name: ASD07300981
#	Creating user name:	WinNT
#	Creation time:	15. 06. 2019 21:10

#	Modifying user name:	WinNT
#	Modification time:	15. 06. 2019 21:10

#	Program:	/corina/corina34_cracker 3.40 0067  02.08.2006

@<TRIPOS>MOLECULE
ASD07300981
  19   20    0    0    0
SMALL
NO_CHARGES


@<TRIPOS>ATOM
   1 N1            -0.0169     1.3965     0.0097 N.pl3   
   2 N2             0.0021    -0.0041     0.0020 N.2     
   3 C3             1.2585    -0.3965    -0.0121 C.2     
   4 C4             2.0721     0.7538    -0.0137 C.2     
   5 C5             1.2611     1.8346    -0.0001 C.2     
   6 C6             1.7340    -1.8023    -0.0234 C.ar    
   7 C7             1.0293    -2.7843     0.6696 C.ar    
   8 C8             1.4758    -4.0902     0.6553 C.ar    
   9 C9             2.6207    -4.4248    -0.0450 C.ar    
  10 C10            3.3244    -3.4537    -0.7344 C.ar    
  11 C11            2.8835    -2.1458    -0.7319 C.ar    
  12 Br12           3.9629     0.7804    -0.0306 Br      
  13 H13           -0.8100     1.9549     0.0167 H       
  14 H14            1.5786     2.8668     0.0024 H       
  15 H15            0.1356    -2.5241     1.2173 H       
  16 H16            0.9303    -4.8523     1.1921 H       
  17 H17            2.9668    -5.4478    -0.0533 H       
  18 H18            4.2182    -3.7202    -1.2790 H       
  19 H19            3.4309    -1.3893    -1.2744 H       
@<TRIPOS>BOND
   1    1    2 1
   2    1    5 1
   3    1   13 1
   4    2    3 2
   5    3    4 1
   6    3    6 1
   7    4    5 2
   8    4   12 1
   9    5   14 1
  10    6    7 ar
  11    6   11 ar
  12    7    8 ar
  13    7   15 1
  14    8    9 ar
  15    8   16 1
  16    9   10 ar
  17    9   17 1
  18   10   11 ar
  19   10   18 1
  20   11   19 1

#	End of record

