#	Name: ASD03490098
#	Creating user name:	WinNT
#	Creation time:	15. 06. 2019 20:42

#	Modifying user name:	WinNT
#	Modification time:	15. 06. 2019 20:42

#	Program:	/corina/corina34_cracker 3.40 0067  02.08.2006

@<TRIPOS>MOLECULE
ASD03490098
  65   69    0    0    0
SMALL
NO_CHARGES


@<TRIPOS>ATOM
   1 C1            -0.1424     1.4322    -0.4397 C.3     
   2 N2            -0.1065    -4.2275     0.0494 N.am    
   3 O3            -1.5522    -4.4598    -1.6201 O.2     
   4 C4            -0.1328    -0.0695    -0.3130 C.ar    
   5 N5            -0.5328    -9.1972    -0.6228 N.ar    
   6 O6            -2.3803   -11.3844    -4.4091 O.3     
   7 C7            -0.0535    -0.6562     0.9339 C.ar    
   8 N8            -2.0586    -9.4641    -2.3850 N.3     
   9 O9             0.2841     2.3592    -6.9929 O.2     
  10 C10           -0.0449    -2.0331     1.0552 C.ar    
  11 N11           -1.5879     1.2571    -7.4553 N.am    
  12 C12           -0.1159    -2.8347    -0.0776 C.ar    
  13 C13           -0.8236    -4.9867    -0.8026 C.2     
  14 C14           -0.7236    -6.4634    -0.7424 C.ar    
  15 C15            0.1098    -7.0897     0.1919 C.ar    
  16 C16            0.1756    -8.4677     0.2172 C.ar    
  17 C17           -1.3338    -8.6492    -1.5228 C.ar    
  18 C18           -1.4581    -7.2672    -1.6152 C.ar    
  19 C19           -1.7848   -10.8845    -2.1223 C.3     
  20 C20           -2.6460   -11.7448    -3.0508 C.3     
  21 C21           -2.6369   -10.0078    -4.7001 C.3     
  22 C22           -1.7756    -9.1299    -3.7884 C.3     
  23 C23           -0.1958    -2.2533    -1.3342 C.ar    
  24 C24           -0.2098    -0.8659    -1.4552 C.ar    
  25 C25           -0.3013    -0.2373    -2.7951 C.ar    
  26 C26            0.6727     0.6730    -3.2059 C.ar    
  27 C27            0.5886     1.2575    -4.4494 C.ar    
  28 C28           -0.4724     0.9384    -5.3004 C.ar    
  29 C29           -1.4471     0.0262    -4.8881 C.ar    
  30 C30           -1.3581    -0.5610    -3.6462 C.ar    
  31 C31           -0.5640     1.5653    -6.6348 C.2     
  32 C32           -1.6787     1.8788    -8.7787 C.3     
  33 C33           -2.9240     1.3609    -9.5011 C.3     
  34 C34           -3.2624     1.9807   -10.8584 C.3     
  35 C35           -2.7124     0.5549   -10.7843 C.3     
  36 H36            0.8827     1.8026    -0.4488 H       
  37 H37           -0.6393     1.7153    -1.3676 H       
  38 H38           -0.6775     1.8647     0.4057 H       
  39 H39            0.4162    -4.6470     0.7506 H       
  40 H40            0.0023    -0.0375     1.8173 H       
  41 H41            0.0177    -2.4871     2.0331 H       
  42 H42           -2.2646     0.6236    -7.1696 H       
  43 H43            0.6942    -6.5016     0.8840 H       
  44 H44            0.8165    -8.9564     0.9361 H       
  45 H45           -2.1129    -6.8232    -2.3504 H       
  46 H46           -0.7309   -11.0922    -2.3072 H       
  47 H47           -2.0255   -11.1157    -1.0847 H       
  48 H48           -3.6999   -11.5768    -2.8292 H       
  49 H49           -2.4049   -12.7970    -2.8996 H       
  50 H50           -2.3891    -9.8038    -5.7418 H       
  51 H51           -3.6905    -9.7893    -4.5264 H       
  52 H52           -2.0095    -8.0804    -3.9669 H       
  53 H53           -0.7215    -9.3096    -3.9999 H       
  54 H54           -0.2508    -2.8745    -2.2160 H       
  55 H55            1.4929     0.9195    -2.5479 H       
  56 H56            1.3424     1.9627    -4.7669 H       
  57 H57           -2.2678    -0.2212    -5.5452 H       
  58 H58           -2.1092    -1.2693    -3.3289 H       
  59 H59           -1.7467     2.9610    -8.6678 H       
  60 H60           -0.7911     1.6282    -9.3596 H       
  61 H61           -3.7556     1.0739    -8.8575 H       
  62 H62           -4.3166     2.1012   -11.1079 H       
  63 H63           -2.5978     2.7575   -11.2367 H       
  64 H64           -1.6860     0.3936   -11.1138 H       
  65 H65           -3.4047    -0.2627   -10.9850 H       
@<TRIPOS>BOND
   1    1    4 1
   2    1   36 1
   3    1   37 1
   4    1   38 1
   5    2   12 1
   6    2   13 am
   7    2   39 1
   8    3   13 2
   9    4    7 ar
  10    4   24 ar
  11    5   16 ar
  12    5   17 ar
  13    6   20 1
  14    6   21 1
  15    7   10 ar
  16    7   40 1
  17    8   17 1
  18    8   19 1
  19    8   22 1
  20    9   31 2
  21   10   12 ar
  22   10   41 1
  23   11   31 am
  24   11   32 1
  25   11   42 1
  26   12   23 ar
  27   13   14 1
  28   14   15 ar
  29   14   18 ar
  30   15   16 ar
  31   15   43 1
  32   16   44 1
  33   17   18 ar
  34   18   45 1
  35   19   20 1
  36   19   46 1
  37   19   47 1
  38   20   48 1
  39   20   49 1
  40   21   22 1
  41   21   50 1
  42   21   51 1
  43   22   52 1
  44   22   53 1
  45   23   24 ar
  46   23   54 1
  47   24   25 1
  48   25   26 ar
  49   25   30 ar
  50   26   27 ar
  51   26   55 1
  52   27   28 ar
  53   27   56 1
  54   28   29 ar
  55   28   31 1
  56   29   30 ar
  57   29   57 1
  58   30   58 1
  59   32   33 1
  60   32   59 1
  61   32   60 1
  62   33   34 1
  63   33   35 1
  64   33   61 1
  65   34   35 1
  66   34   62 1
  67   34   63 1
  68   35   64 1
  69   35   65 1

#	End of record

