#	Name: ASD01141001
#	Creating user name:	WinNT
#	Creation time:	15. 06. 2019 19:01

#	Modifying user name:	WinNT
#	Modification time:	15. 06. 2019 19:01

#	Program:	/corina/corina34_cracker 3.40 0067  02.08.2006

@<TRIPOS>MOLECULE
ASD01141001
  49   51    0    0    0
SMALL
NO_CHARGES


@<TRIPOS>ATOM
   1 C1            -0.0183     1.4973     0.0103 C.2     
   2 C2             0.0021    -0.0041     0.0020 C.3     
   3 C3             1.3499    -0.5166    -0.5104 C.3     
   4 C4             2.4691     0.2089     0.2509 C.3     
   5 N5             2.3291     1.6476    -0.0206 N.am    
   6 N6             1.0493     2.2175     0.0039 N.2     
   7 S7             3.6598     2.5769    -0.3494 S.o2    
   8 O8             3.3491     3.8921     0.0899 O.2     
   9 O9             4.7850     1.8465     0.1191 O.2     
  10 C10            3.8164     2.6619    -2.1024 C.ar    
  11 C11            3.1900     3.6750    -2.8039 C.ar    
  12 C12            3.3124     3.7417    -4.1791 C.ar    
  13 C13            4.0619     2.7949    -4.8531 C.ar    
  14 C14            4.6888     1.7817    -4.1510 C.ar    
  15 C15            4.5703     1.7186    -2.7753 C.ar    
  16 I16            4.2470     2.8951    -6.9375 I       
  17 C17           -1.3252     2.1809     0.0201 C.ar    
  18 C18           -1.3872     3.5763     0.0279 C.ar    
  19 C19           -2.6129     4.2088     0.0366 C.ar    
  20 C20           -3.7793     3.4644     0.0379 C.ar    
  21 C21           -3.7255     2.0818     0.0306 C.ar    
  22 C22           -2.5068     1.4359     0.0156 C.ar    
  23 C23           -7.3875     5.3604    -2.8202 C.3     
  24 C24           -6.9290     5.1161    -1.3811 C.3     
  25 C25           -5.5732     4.4071    -1.3912 C.3     
  26 C26           -5.1147     4.1629     0.0479 C.3     
  27 H27           -0.1623    -0.3724     1.0146 H       
  28 H28           -0.7935    -0.3719    -0.6460 H       
  29 H29            1.4241    -1.5899    -0.3353 H       
  30 H30            1.4389    -0.3097    -1.5769 H       
  31 H31            2.3700     0.0228     1.3203 H       
  32 H32            3.4408    -0.1407    -0.0979 H       
  33 H33            2.6047     4.4144    -2.2774 H       
  34 H34            2.8224     4.5328    -4.7271 H       
  35 H35            5.2739     1.0419    -4.6772 H       
  36 H36            5.0632     0.9297    -2.2265 H       
  37 H37           -0.4776     4.1585     0.0276 H       
  38 H38           -2.6624     5.2877     0.0427 H       
  39 H39           -4.6398     1.5071     0.0321 H       
  40 H40           -2.4662     0.3567     0.0054 H       
  41 H41           -7.4805     4.4061    -3.3388 H       
  42 H42           -8.3534     5.8655    -2.8130 H       
  43 H43           -6.6555     5.9834    -3.3340 H       
  44 H44           -6.8361     6.0704    -0.8625 H       
  45 H45           -7.6610     4.4931    -0.8672 H       
  46 H46           -5.6661     3.4529    -1.9098 H       
  47 H47           -4.8412     5.0301    -1.9050 H       
  48 H48           -5.8467     3.5398     0.5617 H       
  49 H49           -5.0217     5.1171     0.5665 H       
@<TRIPOS>BOND
   1    1    2 1
   2    1    6 2
   3    1   17 1
   4    2    3 1
   5    2   27 1
   6    2   28 1
   7    3    4 1
   8    3   29 1
   9    3   30 1
  10    4    5 1
  11    4   31 1
  12    4   32 1
  13    5    6 1
  14    5    7 am
  15    7    8 2
  16    7    9 2
  17    7   10 1
  18   10   11 ar
  19   10   15 ar
  20   11   12 ar
  21   11   33 1
  22   12   13 ar
  23   12   34 1
  24   13   14 ar
  25   13   16 1
  26   14   15 ar
  27   14   35 1
  28   15   36 1
  29   17   18 ar
  30   17   22 ar
  31   18   19 ar
  32   18   37 1
  33   19   20 ar
  34   19   38 1
  35   20   21 ar
  36   20   26 1
  37   21   22 ar
  38   21   39 1
  39   22   40 1
  40   23   24 1
  41   23   41 1
  42   23   42 1
  43   23   43 1
  44   24   25 1
  45   24   44 1
  46   24   45 1
  47   25   26 1
  48   25   46 1
  49   25   47 1
  50   26   48 1
  51   26   49 1

#	End of record

