#	Name: ASD01870272
#	Creating user name:	WinNT
#	Creation time:	15. 06. 2019 19:38

#	Modifying user name:	WinNT
#	Modification time:	15. 06. 2019 19:38

#	Program:	/corina/corina34_cracker 3.40 0067  02.08.2006

@<TRIPOS>MOLECULE
ASD01870272
  51   55    0    0    0
SMALL
NO_CHARGES


@<TRIPOS>ATOM
   1 C1            -0.0162     1.3398     0.0094 C.2     
   2 N2             0.0021    -0.0041     0.0020 N.am    
   3 C3             1.3998    -0.4509    -0.0137 C.3     
   4 C4             2.2410     0.8006    -0.0150 C.ar    
   5 C5             3.6215     1.0281    -0.0270 C.ar    
   6 C6             4.1060     2.3623    -0.0245 C.ar    
   7 C7             3.1922     3.4320    -0.0100 C.ar    
   8 C8             1.8575     3.1896     0.0014 C.ar    
   9 C9             1.3610     1.8712    -0.0009 C.ar    
  10 C10            5.4912     2.5907    -0.0360 C.ar    
  11 C11            6.3499     1.5338    -0.0494 C.ar    
  12 C12            5.8752     0.2240    -0.0524 C.ar    
  13 C13            4.5394    -0.0370    -0.0410 C.ar    
  14 O14           -1.0232     2.0206     0.0181 O.2     
  15 C15           -1.1752    -0.8760     0.0086 C.3     
  16 C16           -2.0026    -0.6062     1.2669 C.3     
  17 C17           -3.2321    -1.5168     1.2738 C.3     
  18 C18           -4.0828    -1.2345     0.0338 C.3     
  19 C19           -3.2553    -1.5043    -1.2246 C.3     
  20 C20           -2.0258    -0.5937    -1.2314 C.3     
  21 F21           -2.4128     0.7313     1.2775 F       
  22 C22            3.6978     4.8516    -0.0068 C.3     
  23 C23            2.9768     5.8941    -2.1706 C.ar    
  24 C24            3.9699     5.2912    -1.4223 C.ar    
  25 C25            5.2200     5.0961    -1.9898 C.ar    
  26 C26            5.4256     5.5165    -3.2945 C.ar    
  27 C27            4.3838     6.1127    -3.9825 C.ar    
  28 N28            3.2070     6.2825    -3.4096 N.ar    
  29 Cl29           4.6274     6.6440    -5.6171 Cl      
  30 H30            1.6133    -1.0452     0.8748 H       
  31 H31            1.5963    -1.0356    -0.9125 H       
  32 H32            1.1659     4.0190     0.0128 H       
  33 H33            5.8742     3.6005    -0.0346 H       
  34 H34            7.4148     1.7137    -0.0583 H       
  35 H35            6.5775    -0.5964    -0.0638 H       
  36 H36            4.1860    -1.0576    -0.0434 H       
  37 H37           -0.8556    -1.9180     0.0004 H       
  38 H38           -1.3966    -0.8073     2.1503 H       
  39 H39           -2.9125    -2.5589     1.2656 H       
  40 H40           -3.8216    -1.3246     2.1703 H       
  41 H41           -4.9587    -1.8832     0.0387 H       
  42 H42           -4.4024    -0.1924     0.0420 H       
  43 H43           -2.9357    -2.5463    -1.2328 H       
  44 H44           -3.8614    -1.3031    -2.1080 H       
  45 H45           -2.3454     0.4484    -1.2232 H       
  46 H46           -1.4364    -0.7859    -2.1279 H       
  47 H47            2.9464     5.5039     0.4382 H       
  48 H48            4.6182     4.9082     0.5745 H       
  49 H49            1.9993     6.0454    -1.7368 H       
  50 H50            6.0149     4.6279    -1.4282 H       
  51 H51            6.3867     5.3807    -3.7679 H       
@<TRIPOS>BOND
   1    1    2 am
   2    1    9 1
   3    1   14 2
   4    2    3 1
   5    2   15 1
   6    3    4 1
   7    3   30 1
   8    3   31 1
   9    4    5 ar
  10    4    9 ar
  11    5    6 ar
  12    5   13 ar
  13    6    7 ar
  14    6   10 ar
  15    7    8 ar
  16    7   22 1
  17    8    9 ar
  18    8   32 1
  19   10   11 ar
  20   10   33 1
  21   11   12 ar
  22   11   34 1
  23   12   13 ar
  24   12   35 1
  25   13   36 1
  26   15   16 1
  27   15   20 1
  28   15   37 1
  29   16   17 1
  30   16   21 1
  31   16   38 1
  32   17   18 1
  33   17   39 1
  34   17   40 1
  35   18   19 1
  36   18   41 1
  37   18   42 1
  38   19   20 1
  39   19   43 1
  40   19   44 1
  41   20   45 1
  42   20   46 1
  43   22   24 1
  44   22   47 1
  45   22   48 1
  46   23   24 ar
  47   23   28 ar
  48   23   49 1
  49   24   25 ar
  50   25   26 ar
  51   25   50 1
  52   26   27 ar
  53   26   51 1
  54   27   28 ar
  55   27   29 1

#	End of record

