#	Name: ASD02408171
#	Creating user name:	WinNT
#	Creation time:	15. 06. 2019 20:21

#	Modifying user name:	WinNT
#	Modification time:	15. 06. 2019 20:21

#	Program:	/corina/corina34_cracker 3.40 0067  02.08.2006

@<TRIPOS>MOLECULE
ASD02408171
  46   48    0    0    0
SMALL
NO_CHARGES


@<TRIPOS>ATOM
   1 C1            -0.0184     1.5028     0.0103 C.3     
   2 C2             0.0021    -0.0041     0.0020 C.ar    
   3 C3             0.0229    -0.7015     1.1951 C.ar    
   4 C4            -0.0057    -0.6889    -1.1990 C.ar    
   5 C5             0.0131    -2.0709    -1.2066 C.ar    
   6 C6             0.0400    -2.7685    -0.0132 C.ar    
   7 C7             0.0417    -2.0839     1.1875 C.ar    
   8 C8            -0.0351     0.0714    -2.4998 C.3     
   9 C9             1.3696     0.4515    -2.8913 C.2     
  10 N10            1.5636     1.1417    -4.0318 N.am    
  11 N11            2.3575     0.1057    -2.1113 N.2     
  12 C12            3.6258     0.4165    -2.4082 C.2     
  13 C13            3.9005     1.1312    -3.5859 C.2     
  14 C14            2.8080     1.4990    -4.4127 C.2     
  15 N15            4.6469     0.0411    -1.5701 N.pl3   
  16 C16            4.3514    -0.7037    -0.3435 C.3     
  17 O17            2.9896     2.1197    -5.4459 O.2     
  18 C18            0.0599    -4.2753    -0.0215 C.3     
  19 C19            5.5799    -1.5267     0.0822 C.3     
  20 C20            5.9875    -1.0187     1.4807 C.3     
  21 C21            4.6886    -0.3989     2.0532 C.3     
  22 C22            4.0554     0.2757     0.8110 C.3     
  23 C23            5.2431     1.4827    -3.9387 C.1     
  24 N24            6.3082     1.7615    -4.2186 N.1     
  25 H25            1.0042     1.8801     0.0026 H       
  26 H26           -0.5455     1.8639    -0.8728 H       
  27 H27           -0.5286     1.8543     0.9071 H       
  28 H28            0.0248    -0.1666     2.1333 H       
  29 H29            0.0063    -2.6059    -2.1448 H       
  30 H30            0.0627    -2.6288     2.1197 H       
  31 H31           -0.4719    -0.5554    -3.2772 H       
  32 H32           -0.6355     0.9732    -2.3800 H       
  33 H33            0.8032     1.3834    -4.5835 H       
  34 H34            5.5637     0.2689    -1.7902 H       
  35 H35            3.4979    -1.3624    -0.5035 H       
  36 H36            1.0922    -4.6249    -0.0387 H       
  37 H37           -0.4357    -4.6502     0.8740 H       
  38 H38           -0.4622    -4.6407    -0.9057 H       
  39 H39            5.3223    -2.5847     0.1298 H       
  40 H40            6.3959    -1.3720    -0.6237 H       
  41 H41            6.3223    -1.8472     2.1049 H       
  42 H42            6.7677    -0.2618     1.3991 H       
  43 H43            4.0323    -1.1742     2.4483 H       
  44 H44            4.9189     0.3413     2.8195 H       
  45 H45            4.5235     1.2417     0.6214 H       
  46 H46            2.9801     0.3919     0.9465 H       
@<TRIPOS>BOND
   1    1    2 1
   2    1   25 1
   3    1   26 1
   4    1   27 1
   5    2    3 ar
   6    2    4 ar
   7    3    7 ar
   8    3   28 1
   9    4    5 ar
  10    4    8 1
  11    5    6 ar
  12    5   29 1
  13    6    7 ar
  14    6   18 1
  15    7   30 1
  16    8    9 1
  17    8   31 1
  18    8   32 1
  19    9   10 1
  20    9   11 2
  21   10   14 am
  22   10   33 1
  23   11   12 1
  24   12   13 2
  25   12   15 1
  26   13   14 1
  27   13   23 1
  28   14   17 2
  29   15   16 1
  30   15   34 1
  31   16   19 1
  32   16   22 1
  33   16   35 1
  34   18   36 1
  35   18   37 1
  36   18   38 1
  37   19   20 1
  38   19   39 1
  39   19   40 1
  40   20   21 1
  41   20   41 1
  42   20   42 1
  43   21   22 1
  44   21   43 1
  45   21   44 1
  46   22   45 1
  47   22   46 1
  48   23   24 3

#	End of record

