#	Name: ASD01811943
#	Creating user name:	WinNT
#	Creation time:	15. 06. 2019 19:27

#	Modifying user name:	WinNT
#	Modification time:	15. 06. 2019 19:27

#	Program:	/corina/corina34_cracker 3.40 0067  02.08.2006

@<TRIPOS>MOLECULE
ASD01811943
  58   63    0    0    0
SMALL
NO_CHARGES


@<TRIPOS>ATOM
   1 C1            -0.0168     1.3869     0.0097 C.ar    
   2 C2             0.0021    -0.0041     0.0020 C.ar    
   3 C3             1.1801    -0.6897    -0.0129 C.ar    
   4 C4             2.3948     0.0129    -0.0207 C.ar    
   5 C5             2.3717     1.4290    -0.0129 C.ar    
   6 C6             1.1455     2.1015     0.0024 C.ar    
   7 C7             3.6293    -0.6694    -0.0365 C.ar    
   8 C8             4.8031     0.0063    -0.0446 C.ar    
   9 C9             4.8359     1.4095    -0.0374 C.ar    
  10 C10            3.6406     2.1511    -0.0211 C.ar    
  11 C11            6.1026     2.1526    -0.0470 C.2     
  12 N12            6.0328     3.5041    -0.0399 N.am    
  13 C13            4.8302     4.1313    -0.0241 C.2     
  14 N14            3.6961     3.4935    -0.0158 N.2     
  15 O15            7.1745     1.5748    -0.0604 O.2     
  16 C16            3.6424    -2.1763    -0.0442 C.3     
  17 C17            3.5087    -2.6726    -1.4608 C.ar    
  18 C18            4.6382    -2.8923    -2.2354 C.ar    
  19 C19            4.4717    -3.3490    -3.5321 C.ar    
  20 C20            3.1830    -3.5708    -4.0112 C.ar    
  21 N21            2.1283    -3.3482    -3.2376 N.ar    
  22 C22            2.2584    -2.9190    -1.9994 C.ar    
  23 C23            7.2655     4.2957    -0.0490 C.3     
  24 C24            7.3196     5.1740     1.2048 C.3     
  25 C25            8.5708     6.0543     1.1481 C.3     
  26 O26            8.5445     6.8410    -0.0446 O.3     
  27 C27            8.5410     6.0734    -1.2500 C.3     
  28 C28            7.2886     5.1938    -1.2896 C.3     
  29 O29            7.3717     4.3444     2.3672 O.3     
  30 C30            2.9878    -4.0596    -5.3983 C.ar    
  31 C31            1.7011    -4.2843    -5.8860 C.ar    
  32 N32            1.5327    -4.7193    -7.1211 N.ar    
  33 C33            2.5815    -4.9415    -7.8942 C.ar    
  34 C34            3.8612    -4.7195    -7.4134 C.ar    
  35 N35            4.0390    -4.2795    -6.1819 N.ar    
  36 H36           -0.9630     1.9076     0.0169 H       
  37 H37           -0.9305    -0.5488     0.0083 H       
  38 H38            1.1786    -1.7697    -0.0183 H       
  39 H39            1.1188     3.1811     0.0081 H       
  40 H40            5.7317    -0.5451    -0.0563 H       
  41 H41            4.8132     5.2111    -0.0182 H       
  42 H42            4.5813    -2.5336     0.3789 H       
  43 H43            2.8098    -2.5499     0.5518 H       
  44 H44            5.6252    -2.7109    -1.8363 H       
  45 H45            5.3293    -3.5303    -4.1631 H       
  46 H46            1.3769    -2.7488    -1.3992 H       
  47 H47            8.1281     3.6295    -0.0650 H       
  48 H48            6.4318     5.8051     1.2460 H       
  49 H49            8.5922     6.7121     2.0170 H       
  50 H50            9.4596     5.4232     1.1477 H       
  51 H51            8.5409     6.7448    -2.1086 H       
  52 H52            9.4294     5.4425    -1.2817 H       
  53 H53            7.3062     4.5752    -2.1869 H       
  54 H54            6.4002     5.8253    -1.2987 H       
  55 H55            7.4077     4.8353     3.1995 H       
  56 H56            0.8439    -4.1032    -5.2546 H       
  57 H57            2.4401    -5.2977    -8.9039 H       
  58 H58            4.7151    -4.9029    -8.0488 H       
@<TRIPOS>BOND
   1    1    2 ar
   2    1    6 ar
   3    1   36 1
   4    2    3 ar
   5    2   37 1
   6    3    4 ar
   7    3   38 1
   8    4    5 ar
   9    4    7 ar
  10    5    6 ar
  11    5   10 ar
  12    6   39 1
  13    7    8 ar
  14    7   16 1
  15    8    9 ar
  16    8   40 1
  17    9   10 ar
  18    9   11 1
  19   10   14 1
  20   11   12 am
  21   11   15 2
  22   12   13 1
  23   12   23 1
  24   13   14 2
  25   13   41 1
  26   16   17 1
  27   16   42 1
  28   16   43 1
  29   17   18 ar
  30   17   22 ar
  31   18   19 ar
  32   18   44 1
  33   19   20 ar
  34   19   45 1
  35   20   21 ar
  36   20   30 1
  37   21   22 ar
  38   22   46 1
  39   23   24 1
  40   23   28 1
  41   23   47 1
  42   24   25 1
  43   24   29 1
  44   24   48 1
  45   25   26 1
  46   25   49 1
  47   25   50 1
  48   26   27 1
  49   27   28 1
  50   27   51 1
  51   27   52 1
  52   28   53 1
  53   28   54 1
  54   29   55 1
  55   30   31 ar
  56   30   35 ar
  57   31   32 ar
  58   31   56 1
  59   32   33 ar
  60   33   34 ar
  61   33   57 1
  62   34   35 ar
  63   34   58 1

#	End of record

