#	Name: ASD03240302
#	Creating user name:	WinNT
#	Creation time:	15. 06. 2019 20:34

#	Modifying user name:	WinNT
#	Modification time:	15. 06. 2019 20:34

#	Program:	/corina/corina34_cracker 3.40 0067  02.08.2006

@<TRIPOS>MOLECULE
ASD03240302
  99  105    0    0    0
SMALL
NO_CHARGES


@<TRIPOS>ATOM
   1 C1            -0.1344     1.4690    -3.5402 C.2     
   2 N2             0.5400     0.9259    -2.4723 N.pl3   
   3 O3            -3.6663     3.1993    -2.8329 O.2     
   4 C4            -3.3703     3.2516    -4.0079 C.2     
   5 C5            -2.0718     2.6539    -4.4851 C.3     
   6 N6            -1.3532     2.0752    -3.3472 N.pl3   
   7 N7             0.3843     1.4140    -4.7347 N.2     
   8 N8            -4.2026     3.8443    -4.8868 N.am    
   9 C9            -5.4501     4.2993    -4.4664 C.ar    
  10 C10           -6.0283     5.4218    -5.0757 C.ar    
  11 C11           -7.2719     5.8724    -4.6541 C.ar    
  12 C12           -7.9394     5.2052    -3.6260 C.ar    
  13 C13           -7.3549     4.0867    -3.0243 C.ar    
  14 C14           -6.1236     3.6372    -3.4474 C.ar    
  15 C15           -9.2615     5.6805    -3.1737 C.2     
  16 N16           -9.9058     5.0359    -2.1808 N.am    
  17 O17           -9.7694     6.6536    -3.6969 O.2     
  18 C18          -11.0996     5.5577    -1.6661 C.ar    
  19 C19          -12.0699     4.7026    -1.1602 C.ar    
  20 C20          -11.3102     6.9303    -1.6565 C.ar    
  21 C21          -12.4867     7.4446    -1.1492 C.ar    
  22 C22          -13.4596     6.5892    -0.6484 C.ar    
  23 C23          -13.2464     5.2168    -0.6529 C.ar    
  24 N24          -14.6516     7.1103    -0.1339 N.pl3   
  25 C25          -15.7610     6.2125     0.1969 C.3     
  26 C26          -14.7905     8.5538     0.0741 C.3     
  27 C27           -5.3130     6.1264    -6.1675 C.ar    
  28 C28           -5.9702     6.4147    -7.3622 C.ar    
  29 C29           -5.2999     7.0709    -8.3745 C.ar    
  30 C30           -3.9782     7.4423    -8.2051 C.ar    
  31 C31           -3.3208     7.1583    -7.0216 C.ar    
  32 C32           -3.9830     6.5076    -6.0004 C.ar    
  33 C33          -15.0809     8.8263     1.5275 C.ar    
  34 C34          -16.8841     6.4180    -0.7867 C.ar    
  35 C35          -17.9842     7.1348    -0.4289 C.ar    
  36 C36          -19.0327     7.3354    -1.3250 C.ar    
  37 C37          -18.9868     6.8203    -2.5838 C.ar    
  38 C38          -17.8666     6.0749    -2.9897 C.ar    
  39 C39          -16.7982     5.8754    -2.0803 C.ar    
  40 C40          -16.3291     9.2042     1.9164 C.ar    
  41 C41          -16.6165     9.4604     3.2560 C.ar    
  42 C42          -15.6573     9.3402     4.2139 C.ar    
  43 C43          -14.3565     8.9516     3.8504 C.ar    
  44 C44          -14.0657     8.6859     2.4891 C.ar    
  45 C45          -13.3398     8.8166     4.8112 C.ar    
  46 C46          -12.0917     8.4383     4.4223 C.ar    
  47 C47          -11.8043     8.1822     3.0828 C.ar    
  48 C48          -12.7649     8.2973     2.1256 C.ar    
  49 C49          -17.7833     5.5274    -4.2814 C.ar    
  50 C50          -16.6829     4.8110    -4.6394 C.ar    
  51 C51          -15.6345     4.6104    -3.7433 C.ar    
  52 C52          -15.6781     5.1299    -2.4862 C.ar    
  53 C53           -3.2517     8.1586    -9.3142 C.3     
  54 C54           -2.7793     9.5255    -8.8149 C.3     
  55 C55           -2.0422     7.3292    -9.7505 C.3     
  56 H56            1.4018     0.5018    -2.6078 H       
  57 H57            0.1540     0.9668    -1.5833 H       
  58 H58           -2.2784     1.8747    -5.2187 H       
  59 H59           -1.4606     3.4315    -4.9434 H       
  60 H60           -1.7373     2.1196    -2.4576 H       
  61 H61           -0.0915     1.7972    -5.4881 H       
  62 H62           -3.9328     3.9540    -5.8120 H       
  63 H63           -7.7213     6.7369    -5.1201 H       
  64 H64           -7.8723     3.5711    -2.2288 H       
  65 H65           -5.6762     2.7727    -2.9794 H       
  66 H66           -9.5429     4.2108    -1.8226 H       
  67 H67          -11.9042     3.6354    -1.1640 H       
  68 H68          -10.5535     7.5954    -2.0455 H       
  69 H69          -12.6504     8.5121    -1.1414 H       
  70 H70          -14.0031     4.5515    -0.2639 H       
  71 H71          -15.4190     5.1787     0.1472 H       
  72 H72          -16.1161     6.4296     1.2044 H       
  73 H73          -13.8643     9.0527    -0.2111 H       
  74 H74          -15.6100     8.9318    -0.5373 H       
  75 H75           -7.0020     6.1249    -7.4957 H       
  76 H76           -5.8081     7.2945    -9.3009 H       
  77 H77           -2.2888     7.4502    -6.8948 H       
  78 H78           -3.4688     6.2864    -5.0768 H       
  79 H79          -18.0458     7.5542     0.5645 H       
  80 H80          -19.8946     7.9078    -1.0156 H       
  81 H81          -19.8071     6.9832    -3.2672 H       
  82 H82          -17.1086     9.3074     1.1760 H       
  83 H83          -17.6153     9.7593     3.5380 H       
  84 H84          -15.8943     9.5428     5.2479 H       
  85 H85          -13.5478     9.0125     5.8528 H       
  86 H86          -11.3122     8.3354     5.1627 H       
  87 H87          -10.8053     7.8841     2.8007 H       
  88 H88          -12.5277     8.0952     1.0915 H       
  89 H89          -18.5884     5.6742    -4.9862 H       
  90 H90          -16.6214     4.3914    -5.6326 H       
  91 H91          -14.7729     4.0373    -4.0524 H       
  92 H92          -14.8580     4.9666    -1.8026 H       
  93 H93           -3.9242     8.2937   -10.1612 H       
  94 H94           -3.6410    10.1164    -8.5040 H       
  95 H95           -2.1068     9.3904    -7.9678 H       
  96 H96           -2.2538    10.0436    -9.6171 H       
  97 H97           -2.3787     6.3554   -10.1062 H       
  98 H98           -1.5167     7.8473   -10.5527 H       
  99 H99           -1.3697     7.1941    -8.9034 H       
@<TRIPOS>BOND
   1    1    2 1
   2    1    7 2
   3    1    6 1
   4    2   56 1
   5    2   57 1
   6    3    4 2
   7    4    5 1
   8    4    8 am
   9    5    6 1
  10    5   58 1
  11    5   59 1
  12    6   60 1
  13    7   61 1
  14    8    9 1
  15    8   62 1
  16    9   10 ar
  17    9   14 ar
  18   10   11 ar
  19   10   27 1
  20   11   12 ar
  21   11   63 1
  22   12   13 ar
  23   12   15 1
  24   13   14 ar
  25   13   64 1
  26   14   65 1
  27   15   16 am
  28   15   17 2
  29   16   18 1
  30   16   66 1
  31   18   19 ar
  32   18   20 ar
  33   19   23 ar
  34   19   67 1
  35   20   21 ar
  36   20   68 1
  37   21   22 ar
  38   21   69 1
  39   22   23 ar
  40   22   24 1
  41   23   70 1
  42   24   25 1
  43   24   26 1
  44   25   34 1
  45   25   71 1
  46   25   72 1
  47   26   33 1
  48   26   73 1
  49   26   74 1
  50   27   28 ar
  51   27   32 ar
  52   28   29 ar
  53   28   75 1
  54   29   30 ar
  55   29   76 1
  56   30   31 ar
  57   30   53 1
  58   31   32 ar
  59   31   77 1
  60   32   78 1
  61   33   40 ar
  62   33   44 ar
  63   34   35 ar
  64   34   39 ar
  65   35   36 ar
  66   35   79 1
  67   36   37 ar
  68   36   80 1
  69   37   38 ar
  70   37   81 1
  71   38   39 ar
  72   38   49 ar
  73   39   52 ar
  74   40   41 ar
  75   40   82 1
  76   41   42 ar
  77   41   83 1
  78   42   43 ar
  79   42   84 1
  80   43   44 ar
  81   43   45 ar
  82   44   48 ar
  83   45   46 ar
  84   45   85 1
  85   46   47 ar
  86   46   86 1
  87   47   48 ar
  88   47   87 1
  89   48   88 1
  90   49   50 ar
  91   49   89 1
  92   50   51 ar
  93   50   90 1
  94   51   52 ar
  95   51   91 1
  96   52   92 1
  97   53   54 1
  98   53   55 1
  99   53   93 1
 100   54   94 1
 101   54   95 1
 102   54   96 1
 103   55   97 1
 104   55   98 1
 105   55   99 1

#	End of record

