#	Name: ASD02560233
#	Creating user name:	WinNT
#	Creation time:	15. 06. 2019 20:24

#	Modifying user name:	WinNT
#	Modification time:	15. 06. 2019 20:24

#	Program:	/corina/corina34_cracker 3.40 0067  02.08.2006

@<TRIPOS>MOLECULE
ASD02560233
  31   33    0    0    0
SMALL
NO_CHARGES


@<TRIPOS>ATOM
   1 N1             0.6078     2.0753     1.9444 N.2     
   2 N2             0.9486     1.1054     2.8982 N.2     
   3 C3             2.0845     0.5715     2.5254 C.2     
   4 O4             2.4716     1.1626     1.3813 O.3     
   5 C5             1.5535     2.0834     1.0388 C.2     
   6 N6             1.5999     2.9003    -0.0807 N.pl3   
   7 N7             2.7705    -0.4304     3.1953 N.pl3   
   8 C8             2.3199    -0.8722     4.4428 C.ar    
   9 C9             2.5595    -2.1798     4.8460 C.ar    
  10 C10            2.1133    -2.6136     6.0788 C.ar    
  11 C11            1.4279    -1.7470     6.9123 C.ar    
  12 C12            1.1874    -0.4440     6.5130 C.ar    
  13 C13            1.6368    -0.0029     5.2838 C.ar    
  14 C14            0.6286     3.8897    -0.2653 C.ar    
  15 C15            0.8911     5.2021     0.1094 C.ar    
  16 C16           -0.0710     6.1772    -0.0749 C.ar    
  17 C17           -1.2936     5.8483    -0.6309 C.ar    
  18 C18           -1.5586     4.5435    -1.0046 C.ar    
  19 C19           -0.5993     3.5641    -0.8290 C.ar    
  20 Cl20          -0.9329     1.9265    -1.2989 Cl      
  21 Cl21           2.4252     5.6159     0.8086 Cl      
  22 Cl22           0.8684    -2.2957     8.4613 Cl      
  23 H23            2.3059     2.7855    -0.7359 H       
  24 H24            3.5629    -0.8246     2.7984 H       
  25 H25            3.0940    -2.8566     4.1959 H       
  26 H26            2.2989    -3.6301     6.3927 H       
  27 H27            0.6517     0.2300     7.1651 H       
  28 H28            1.4488     1.0141     4.9727 H       
  29 H29            0.1323     7.1972     0.2160 H       
  30 H30           -2.0436     6.6123    -0.7734 H       
  31 H31           -2.5149     4.2902    -1.4379 H       
@<TRIPOS>BOND
   1    1    2 1
   2    1    5 2
   3    2    3 2
   4    3    4 1
   5    3    7 1
   6    4    5 1
   7    5    6 1
   8    6   14 1
   9    6   23 1
  10    7    8 1
  11    7   24 1
  12    8    9 ar
  13    8   13 ar
  14    9   10 ar
  15    9   25 1
  16   10   11 ar
  17   10   26 1
  18   11   12 ar
  19   11   22 1
  20   12   13 ar
  21   12   27 1
  22   13   28 1
  23   14   15 ar
  24   14   19 ar
  25   15   16 ar
  26   15   21 1
  27   16   17 ar
  28   16   29 1
  29   17   18 ar
  30   17   30 1
  31   18   19 ar
  32   18   31 1
  33   19   20 1

#	End of record

