#	Name: ASD07930914
#	Creating user name:	WinNT
#	Creation time:	15. 06. 2019 21:13

#	Modifying user name:	WinNT
#	Modification time:	15. 06. 2019 21:13

#	Program:	/corina/corina34_cracker 3.40 0067  02.08.2006

@<TRIPOS>MOLECULE
ASD07930914
  48   52    0    0    0
SMALL
NO_CHARGES


@<TRIPOS>ATOM
   1 C1            -0.0167     1.3785     0.0096 C.ar    
   2 C2             0.0021    -0.0041     0.0020 C.ar    
   3 C3             1.2175    -0.6807    -0.0132 C.ar    
   4 C4             2.4065     0.0353    -0.0207 C.ar    
   5 C5             2.3800     1.4167    -0.0130 C.ar    
   6 C6             1.1710     2.0872     0.0021 C.ar    
   7 F7            -1.1579    -0.6966     0.0098 F       
   8 N8             1.2413    -2.0812    -0.0205 N.am    
   9 N9             0.6059    -2.8952     0.9207 N.2     
  10 C10            0.8029    -4.1553     0.6585 C.2     
  11 C11            1.6408    -4.2263    -0.5604 C.2     
  12 C12            1.8768    -2.8372    -0.9415 C.2     
  13 O13            2.5245    -2.4391    -1.8960 O.2     
  14 C14            0.3982    -5.4338     1.2737 C.ar    
  15 C15            0.8283    -6.6278     0.6711 C.ar    
  16 N16            1.6117    -6.5963    -0.4697 N.pl3   
  17 C17            1.9996    -5.4539    -1.0590 C.2     
  18 C18           -0.3880    -5.4718     2.4205 C.ar    
  19 C19           -0.7446    -6.6885     2.9650 C.ar    
  20 C20           -0.3220    -7.8678     2.3731 C.ar    
  21 C21            0.4577    -7.8433     1.2353 C.ar    
  22 C22            2.0364    -7.8675    -1.0614 C.3     
  23 C23            1.0111    -8.3202    -2.0687 C.ar    
  24 C24            1.1244    -7.9321    -3.3909 C.ar    
  25 C25            0.1858    -8.3457    -4.3163 C.ar    
  26 C26           -0.8711    -9.1513    -3.9180 C.ar    
  27 C27           -0.9825    -9.5394    -2.5907 C.ar    
  28 C28           -0.0382    -9.1276    -1.6703 C.ar    
  29 O29           -1.7959    -9.5592    -4.8263 O.3     
  30 C30           -2.8568   -10.3870    -4.3451 C.3     
  31 H31           -0.9594     1.9053     0.0169 H       
  32 H32            3.3518    -0.4870    -0.0321 H       
  33 H33            3.3053     1.9737    -0.0188 H       
  34 H34            1.1540     3.1670     0.0080 H       
  35 H35            2.6108    -5.5021    -1.9482 H       
  36 H36           -0.7177    -4.5531     2.8828 H       
  37 H37           -1.3547    -6.7217     3.8556 H       
  38 H38           -0.6061    -8.8154     2.8064 H       
  39 H39            0.7811    -8.7691     0.7829 H       
  40 H40            2.9983    -7.7343    -1.5566 H       
  41 H41            2.1323    -8.6189    -0.2776 H       
  42 H42            1.9472    -7.3047    -3.7005 H       
  43 H43            0.2746    -8.0420    -5.3489 H       
  44 H44           -1.8044   -10.1664    -2.2781 H       
  45 H45           -0.1245    -9.4295    -0.6369 H       
  46 H46           -2.4407   -11.3005    -3.9203 H       
  47 H47           -3.4160    -9.8515    -3.5780 H       
  48 H48           -3.5227   -10.6403    -5.1700 H       
@<TRIPOS>BOND
   1    1    2 ar
   2    1    6 ar
   3    1   31 1
   4    2    3 ar
   5    2    7 1
   6    3    4 ar
   7    3    8 1
   8    4    5 ar
   9    4   32 1
  10    5    6 ar
  11    5   33 1
  12    6   34 1
  13    8    9 1
  14    8   12 am
  15    9   10 2
  16   10   11 1
  17   10   14 1
  18   11   12 1
  19   11   17 2
  20   12   13 2
  21   14   15 ar
  22   14   18 ar
  23   15   16 1
  24   15   21 ar
  25   16   17 1
  26   16   22 1
  27   17   35 1
  28   18   19 ar
  29   18   36 1
  30   19   20 ar
  31   19   37 1
  32   20   21 ar
  33   20   38 1
  34   21   39 1
  35   22   23 1
  36   22   40 1
  37   22   41 1
  38   23   24 ar
  39   23   28 ar
  40   24   25 ar
  41   24   42 1
  42   25   26 ar
  43   25   43 1
  44   26   27 ar
  45   26   29 1
  46   27   28 ar
  47   27   44 1
  48   28   45 1
  49   29   30 1
  50   30   46 1
  51   30   47 1
  52   30   48 1

#	End of record

