#	Name: ASD01884832
#	Creating user name:	WinNT
#	Creation time:	15. 06. 2019 19:48

#	Modifying user name:	WinNT
#	Modification time:	15. 06. 2019 19:48

#	Program:	/corina/corina34_cracker 3.40 0067  02.08.2006

@<TRIPOS>MOLECULE
ASD01884832
  56   60    0    0    0
SMALL
NO_CHARGES


@<TRIPOS>ATOM
   1 C1            -0.0170     1.4050     0.0098 C.2     
   2 C2             1.1991    -0.6521    -0.0129 C.2     
   3 C3             2.3930     0.0893    -0.0203 C.2     
   4 C4             2.3588     1.4383    -0.0121 C.2     
   5 N5             1.1665     2.1012     0.0022 N.pl3   
   6 C6             0.8241     3.4179     0.0118 C.2     
   7 N7            -0.4823     3.4846     0.0242 N.2     
   8 N8            -0.9895     2.3020     0.0186 N.2     
   9 C9             1.7760     4.5862     0.0091 C.3     
  10 C10            1.2438    -2.1584    -0.0214 C.3     
  11 C11            2.0853     4.9887    -1.4342 C.3     
  12 C12            0.0021    -0.0041     0.0020 C.2     
  13 Cl13          -1.4832    -0.9027     0.0119 Cl      
  14 C14            2.9455     6.2352    -1.6511 C.3     
  15 C15            3.5315     4.8463    -1.9129 C.3     
  16 H16            3.3434    -0.4236    -0.0323 H       
  17 H17            3.2826     1.9976    -0.0175 H       
  18 H18            1.3201     5.4274     0.5312 H       
  19 H19            2.6999     4.3031     0.5133 H       
  20 H20            2.2817    -2.4910    -0.0331 H       
  21 H21            0.7495    -2.5416     0.8713 H       
  22 H22            0.7325    -2.5320    -0.9086 H       
  23 H23            1.2938     4.7914    -2.1572 H       
  24 H24            2.7203     6.8578    -2.5170 H       
  25 H25            3.2911     6.7685    -0.7655 H       
  26 H26            4.2626     4.4659    -1.1995 H       
  27 H27            3.6917     4.5551    -2.9510 H       
  28 N28           10.2642    16.1792    11.8286 N.3     
  29 C29           10.2841    14.7109    11.8206 C.3     
  30 C30           10.9552    14.2165    10.5362 C.3     
  31 C31           12.3749    14.7762    10.4610 C.3     
  32 C32           12.3406    16.3018    10.5347 C.3     
  33 C33           11.6253    16.7305    11.8186 C.3     
  34 O34           13.1657    14.2511    11.5386 O.3     
  35 C35           13.7713    13.0583    11.0051 C.3     
  36 C36           13.8952    13.2847     9.5161 C.ar    
  37 C37           13.0451    14.3296     9.1861 C.ar    
  38 C38           14.6488    12.6719     8.5366 C.ar    
  39 C39           14.5563    13.1004     7.2250 C.ar    
  40 C40           13.7086    14.1418     6.8958 C.ar    
  41 C41           12.9532    14.7568     7.8773 C.ar    
  42 H42            9.7232    16.5378    11.0561 H       
  43 H43           10.8428    14.3503    12.6843 H       
  44 H44            9.2626    14.3334    11.8652 H       
  45 H45           10.9933    13.1272    10.5416 H       
  46 H46           10.3836    14.5570     9.6728 H       
  47 H47           13.3595    16.6888    10.5393 H       
  48 H48           11.8051    16.6958     9.6709 H       
  49 H49           11.5768    17.8186    11.8614 H       
  50 H50           12.1748    16.3571    12.6827 H       
  51 H51           14.7570    12.9085    11.4454 H       
  52 H52           13.1363    12.1945    11.2019 H       
  53 H53           15.3102    11.8578     8.7938 H       
  54 H54           15.1461    12.6211     6.4577 H       
  55 H55           13.6370    14.4759     5.8713 H       
  56 H56           12.2910    15.5701     7.6195 H       
@<TRIPOS>BOND
   1    1   12 1
   2    1    5 1
   3    1    8 2
   4    2    3 1
   5    2   10 1
   6    2   12 2
   7    3    4 2
   8    3   16 1
   9    4    5 1
  10    4   17 1
  11    5    6 1
  12    6    7 2
  13    6    9 1
  14    7    8 1
  15    9   11 1
  16    9   18 1
  17    9   19 1
  18   10   20 1
  19   10   21 1
  20   10   22 1
  21   11   14 1
  22   11   15 1
  23   11   23 1
  24   12   13 1
  25   14   15 1
  26   14   24 1
  27   14   25 1
  28   15   26 1
  29   15   27 1
  30   28   29 1
  31   28   33 1
  32   28   42 1
  33   29   30 1
  34   29   43 1
  35   29   44 1
  36   30   31 1
  37   30   45 1
  38   30   46 1
  39   31   32 1
  40   31   34 1
  41   31   37 1
  42   32   33 1
  43   32   47 1
  44   32   48 1
  45   33   49 1
  46   33   50 1
  47   34   35 1
  48   35   36 1
  49   35   51 1
  50   35   52 1
  51   36   37 ar
  52   36   38 ar
  53   37   41 ar
  54   38   39 ar
  55   38   53 1
  56   39   40 ar
  57   39   54 1
  58   40   41 ar
  59   40   55 1
  60   41   56 1

#	End of record

