#	Name: ASD01916742
#	Creating user name:	WinNT
#	Creation time:	15. 06. 2019 20:07

#	Modifying user name:	WinNT
#	Modification time:	15. 06. 2019 20:07

#	Program:	/corina/corina34_cracker 3.40 0067  02.08.2006

@<TRIPOS>MOLECULE
ASD01916742
  46   49    0    0    0
SMALL
NO_CHARGES


@<TRIPOS>ATOM
   1 C1            -0.0171     1.4092     0.0115 C.ar    
   2 C2             0.0025    -0.0032     0.0105 C.ar    
   3 C3            -1.1894    -0.7235     0.0515 C.ar    
   4 C4            -2.3835    -0.0607     0.0794 C.ar    
   5 C5            -2.4211     1.3390     0.0678 C.ar    
   6 C6            -1.2435     2.0760     0.0342 C.ar    
   7 N7             1.1589     2.0750     0.0012 N.2     
   8 C8             2.3199     1.4690    -0.0368 C.2     
   9 N9             2.4226     0.1206    -0.1473 N.am    
  10 C10            1.3137    -0.6628    -0.0493 C.2     
  11 C11           -3.7251     2.0389     0.0909 C.2     
  12 O12            1.4060    -1.8758    -0.0126 O.2     
  13 N13           -4.8704     1.3291     0.1231 N.am    
  14 C14            3.5343     2.3491     0.1008 C.3     
  15 C15            4.7920     1.6957    -0.4279 C.3     
  16 C16            4.8988     0.2418    -0.0159 C.3     
  17 C17            3.6833    -0.5605    -0.4215 C.3     
  18 C18           -6.0927     1.9847     0.2537 C.ar    
  19 N19           -6.1174     3.2945     0.4427 N.ar    
  20 C20           -7.2530     3.9538     0.5712 C.ar    
  21 C21           -8.4649     3.2947     0.5129 C.ar    
  22 C22           -8.4825     1.9204     0.3159 C.ar    
  23 C23           -7.2758     1.2577     0.1785 C.ar    
  24 O24           -3.7631     3.2535     0.0810 O.2     
  25 C25            4.7907     1.7800    -1.9556 C.3     
  26 C26            6.0082     2.4540     0.1076 C.3     
  27 H27           -1.1692    -1.8033     0.0608 H       
  28 H28           -3.3063    -0.6210     0.1104 H       
  29 H29           -1.2767     3.1554     0.0261 H       
  30 H30           -4.8436     0.3619     0.0553 H       
  31 H31            3.3617     3.2753    -0.4475 H       
  32 H32            3.6782     2.5881     1.1545 H       
  33 H33            5.7818    -0.1940    -0.4833 H       
  34 H34            5.0118     0.1888     1.0669 H       
  35 H35            3.6935    -1.5076     0.1180 H       
  36 H36            3.7427    -0.7692    -1.4897 H       
  37 H37           -7.2344     5.0227     0.7244 H       
  38 H38           -9.3895     3.8424     0.6199 H       
  39 H39           -9.4172     1.3816     0.2665 H       
  40 H40           -7.2527     0.1891     0.0236 H       
  41 H41            4.7625     2.8257    -2.2618 H       
  42 H42            5.6940     1.3113    -2.3461 H       
  43 H43            3.9147     1.2630    -2.3472 H       
  44 H44            6.0062     2.4208     1.1971 H       
  45 H45            6.9201     1.9901    -0.2683 H       
  46 H46            5.9648     3.4913    -0.2244 H       
@<TRIPOS>BOND
   1    1    2 ar
   2    1    7 1
   3    1    6 ar
   4    2    3 ar
   5    2   10 1
   6    3    4 ar
   7    3   27 1
   8    4    5 ar
   9    4   28 1
  10    5    6 ar
  11    5   11 1
  12    6   29 1
  13    7    8 2
  14    8    9 1
  15    8   14 1
  16    9   10 am
  17    9   17 1
  18   10   12 2
  19   11   13 am
  20   11   24 2
  21   13   18 1
  22   13   30 1
  23   14   15 1
  24   14   31 1
  25   14   32 1
  26   15   16 1
  27   15   25 1
  28   15   26 1
  29   16   17 1
  30   16   33 1
  31   16   34 1
  32   17   35 1
  33   17   36 1
  34   18   19 ar
  35   18   23 ar
  36   19   20 ar
  37   20   21 ar
  38   20   37 1
  39   21   22 ar
  40   21   38 1
  41   22   23 ar
  42   22   39 1
  43   23   40 1
  44   25   41 1
  45   25   42 1
  46   25   43 1
  47   26   44 1
  48   26   45 1
  49   26   46 1

#	End of record

