#	Name: ASD05740045
#	Creating user name:	WinNT
#	Creation time:	15. 06. 2019 21:02

#	Modifying user name:	WinNT
#	Modification time:	15. 06. 2019 21:02

#	Program:	/corina/corina34_cracker 3.40 0067  02.08.2006

@<TRIPOS>MOLECULE
ASD05740045
  46   49    0    0    0
SMALL
NO_CHARGES


@<TRIPOS>ATOM
   1 O1             0.0289     1.2227     1.0067 O.3     
   2 C2             2.1944    -4.4267     1.2562 C.ar    
   3 C3             0.9554    -5.0437     1.4167 C.ar    
   4 C4             2.2808    -3.0693     1.1415 C.ar    
   5 C5             1.1177    -2.2920     1.1845 C.ar    
   6 C6            -0.1362    -2.9093     1.3459 C.ar    
   7 C7            -0.2058    -4.2897     1.4613 C.ar    
   8 C8             1.1819    -0.8338     1.0640 C.2     
   9 C9             0.0158    -0.1324     1.1141 C.2     
  10 C10           -1.2107    -0.8210     1.2790 C.2     
  11 O11           -1.2574    -2.1575     1.3880 O.3     
  12 C12           -0.5474     1.7816    -0.0906 C.2     
  13 C13           -0.7071     3.0934    -0.2920 C.2     
  14 O14           -2.2481    -0.1847     1.3226 O.2     
  15 O15            0.8857    -6.3950     1.5298 O.3     
  16 C16            0.2834    -7.0869     0.5320 C.2     
  17 C17            2.5024    -0.1288     0.8902 C.3     
  18 S18           -1.1887     0.8886    -1.4630 S.3     
  19 C19           -1.6536     2.3847    -2.2618 C.2     
  20 C20           -1.3242     3.4281    -1.4904 C.2     
  21 N21           -2.2781     2.4712    -3.5108 N.am    
  22 S22           -1.7264     1.5581    -4.7774 S.o2    
  23 O23           -2.5429     1.9487    -5.8728 O.2     
  24 O24           -0.3241     1.7879    -4.7904 O.2     
  25 N25           -0.1500    -6.5688    -0.5733 N.2     
  26 S26           -0.0081    -8.7715     0.5459 S.3     
  27 C27           -0.7539    -8.6661    -1.0467 C.2     
  28 C28           -0.7123    -7.3918    -1.4393 C.2     
  29 C29           -2.0867    -0.1525    -4.2931 C.3     
  30 C30           -1.5225    -1.1099    -5.3447 C.3     
  31 H31            3.0924    -5.0259     1.2271 H       
  32 H32            3.2439    -2.5965     1.0177 H       
  33 H33           -1.1625    -4.7753     1.5853 H       
  34 H34           -0.3817     3.8355     0.4220 H       
  35 H35            2.6900     0.0349    -0.1710 H       
  36 H36            2.4727     0.8309     1.4062 H       
  37 H37            3.2998    -0.7423     1.3096 H       
  38 H38           -1.5165     4.4505    -1.7807 H       
  39 H39           -3.0343     3.0659    -3.6348 H       
  40 H40           -1.1693    -9.4897    -1.6084 H       
  41 H41           -1.1079    -7.0599    -2.3879 H       
  42 H42           -1.6263    -0.3613    -3.3274 H       
  43 H43           -3.1655    -0.2894    -4.2185 H       
  44 H44           -1.7390    -2.1378    -5.0537 H       
  45 H45           -1.9829    -0.9010    -6.3104 H       
  46 H46           -0.4437    -0.9729    -5.4193 H       
@<TRIPOS>BOND
   1    1    9 1
   2    1   12 1
   3    2    3 ar
   4    2    4 ar
   5    2   31 1
   6    3   15 1
   7    3    7 ar
   8    4    5 ar
   9    4   32 1
  10    5    6 ar
  11    5    8 1
  12    6    7 ar
  13    6   11 1
  14    7   33 1
  15    8    9 2
  16    8   17 1
  17    9   10 1
  18   10   11 1
  19   10   14 2
  20   12   13 2
  21   12   18 1
  22   13   20 1
  23   13   34 1
  24   15   16 1
  25   16   26 1
  26   16   25 2
  27   17   35 1
  28   17   36 1
  29   17   37 1
  30   18   19 1
  31   19   20 2
  32   19   21 1
  33   20   38 1
  34   21   22 am
  35   21   39 1
  36   22   23 2
  37   22   24 2
  38   22   29 1
  39   25   28 1
  40   26   27 1
  41   27   28 2
  42   27   40 1
  43   28   41 1
  44   29   30 1
  45   29   42 1
  46   29   43 1
  47   30   44 1
  48   30   45 1
  49   30   46 1

#	End of record

