#	Name: ASD07300495
#	Creating user name:	WinNT
#	Creation time:	15. 06. 2019 21:09

#	Modifying user name:	WinNT
#	Modification time:	15. 06. 2019 21:09

#	Program:	/corina/corina34_cracker 3.40 0067  02.08.2006

@<TRIPOS>MOLECULE
ASD07300495
  39   43    0    0    0
SMALL
NO_CHARGES


@<TRIPOS>ATOM
   1 C1            -0.8588     0.9901    -0.1287 C.ar    
   2 C2            -1.0217    -0.3807    -0.3517 C.ar    
   3 C3             0.0637    -1.2292    -0.1921 C.ar    
   4 C4             1.2787    -0.6763     0.1860 C.ar    
   5 C5             1.3679     0.6878     0.3896 C.ar    
   6 N6             0.3194     1.4722     0.2308 N.ar    
   7 C7            -2.9727     0.6168    -0.6993 C.2     
   8 N8            -2.0973     1.5796    -0.3552 N.am    
   9 N9            -2.3516    -0.5780    -0.7114 N.am    
  10 O10           -4.1464     0.7990    -0.9634 O.2     
  11 C11           -2.3862     2.9477    -0.2432 C.ar    
  12 C12           -3.6705     3.4093    -0.4981 C.ar    
  13 C13           -3.9545     4.7560    -0.3872 C.ar    
  14 C14           -2.9567     5.6478    -0.0212 C.ar    
  15 C15           -1.6731     5.1870     0.2337 C.ar    
  16 C16           -1.3894     3.8398     0.1282 C.ar    
  17 O17           -3.2368     6.9738     0.0874 O.3     
  18 C18           -3.9132     7.3925     1.1815 C.2     
  19 N19           -4.2407     6.6360     2.1967 N.2     
  20 C20           -4.9115     7.3750     3.1189 C.ar    
  21 C21           -4.9944     8.6846     2.6168 C.ar    
  22 N22           -4.3497     8.6678     1.3918 N.pl3   
  23 C23           -5.4764     7.0780     4.3613 C.ar    
  24 C24           -6.1073     8.0687     5.0801 C.ar    
  25 C25           -6.1868     9.3596     4.5797 C.ar    
  26 C26           -5.6339     9.6694     3.3541 C.ar    
  27 H27           -0.0344    -2.2919    -0.3575 H       
  28 H28            2.1460    -1.3057     0.3203 H       
  29 H29            2.3132     1.1193     0.6840 H       
  30 H30           -2.7617    -1.4300    -0.9277 H       
  31 H31           -4.4472     2.7152    -0.7834 H       
  32 H32           -4.9535     5.1152    -0.5859 H       
  33 H33           -0.8967     5.8815     0.5186 H       
  34 H34           -0.3912     3.4806     0.3306 H       
  35 H35           -4.2322     9.4220     0.7933 H       
  36 H36           -5.4188     6.0746     4.7568 H       
  37 H37           -6.5439     7.8385     6.0408 H       
  38 H38           -6.6850    10.1274     5.1529 H       
  39 H39           -5.6987    10.6768     2.9702 H       
@<TRIPOS>BOND
   1    1    2 ar
   2    1    6 ar
   3    1    8 1
   4    2    3 ar
   5    2    9 1
   6    3    4 ar
   7    3   27 1
   8    4    5 ar
   9    4   28 1
  10    5    6 ar
  11    5   29 1
  12    7    8 am
  13    7    9 am
  14    7   10 2
  15    8   11 1
  16    9   30 1
  17   11   12 ar
  18   11   16 ar
  19   12   13 ar
  20   12   31 1
  21   13   14 ar
  22   13   32 1
  23   14   15 ar
  24   14   17 1
  25   15   16 ar
  26   15   33 1
  27   16   34 1
  28   17   18 1
  29   18   19 2
  30   18   22 1
  31   19   20 1
  32   20   21 ar
  33   20   23 ar
  34   21   22 1
  35   21   26 ar
  36   22   35 1
  37   23   24 ar
  38   23   36 1
  39   24   25 ar
  40   24   37 1
  41   25   26 ar
  42   25   38 1
  43   26   39 1

#	End of record

