#	Name: ASD00460056
#	Creating user name:	WinNT
#	Creation time:	15. 06. 2019 18:36

#	Modifying user name:	WinNT
#	Modification time:	15. 06. 2019 18:36

#	Program:	/corina/corina34_cracker 3.40 0067  02.08.2006

@<TRIPOS>MOLECULE
ASD00460056
  54   57    0    0    0
SMALL
NO_CHARGES


@<TRIPOS>ATOM
   1 O1            -0.7257     1.2061    -1.3492 O.3     
   2 O2             0.0602    -0.7792    -1.9189 O.2     
   3 N3            -0.1810    -6.3358    -0.0302 N.3     
   4 N4             0.3786    -9.2431    -1.7940 N.3     
   5 C5            -0.6622    -8.2876    -1.3919 C.3     
   6 C6            -1.0804    -8.5358     0.0755 C.3     
   7 C7            -0.1068    -6.8515    -1.4145 C.3     
   8 C8            -1.2699    -7.1011     0.6291 C.3     
   9 C9            -0.2159   -10.4940    -2.2837 C.3     
  10 C10           -0.4548    -4.9662    -0.0203 C.ar    
  11 C11            0.7477   -11.1749    -3.2212 C.ar    
  12 C12           -0.5122   -11.4158    -1.0991 C.3     
  13 C13            0.3809    -4.0943     0.6660 C.ar    
  14 C14           -1.5601    -4.4723    -0.7013 C.ar    
  15 C15            0.2712   -12.0595    -4.2040 C.ar    
  16 C16            2.0832   -10.9320    -3.1244 C.ar    
  17 C17            1.1930   -12.6900    -5.0769 C.ar    
  18 C18            0.1073    -2.7406     0.6738 C.ar    
  19 C19           -1.8279    -3.1175    -0.6894 C.ar    
  20 C20           -0.9972    -2.2530    -0.0004 C.ar    
  21 C21           -1.1007   -12.3316    -4.3379 C.ar    
  22 C22            2.9896   -11.5519    -3.9828 C.ar    
  23 C23            2.5655   -12.4182    -4.9428 C.ar    
  24 C24            0.7171   -13.5747    -6.0592 C.ar    
  25 C25           -1.2926    -0.7752     0.0104 C.3     
  26 C26           -1.5253   -13.1945    -5.3013 C.ar    
  27 C27           -0.6192   -13.8142    -6.1593 C.ar    
  28 C28           -0.6031    -0.1166    -1.1566 C.2     
  29 H29           -1.5264    -8.3710    -2.0509 H       
  30 H30           -2.0159    -9.0934     0.1209 H       
  31 H31           -0.2923    -9.0577     0.6183 H       
  32 H32           -0.7113    -6.2299    -2.0751 H       
  33 H33            0.9293    -6.8593    -1.7528 H       
  34 H34           -1.1483    -7.0876     1.7123 H       
  35 H35           -2.2449    -6.7049     0.3454 H       
  36 H36            0.9924    -8.8394    -2.4857 H       
  37 H37           -1.1428   -10.2730    -2.8128 H       
  38 H38           -1.2092   -10.9234    -0.4209 H       
  39 H39           -0.9534   -12.3440    -1.4624 H       
  40 H40            0.4147   -11.6368    -0.5699 H       
  41 H41            1.2435    -4.4745     1.1931 H       
  42 H42           -2.2092    -5.1470    -1.2398 H       
  43 H43            2.4463   -10.2484    -2.3712 H       
  44 H44            0.7564    -2.0622     1.2075 H       
  45 H45           -2.6870    -2.7328    -1.2190 H       
  46 H46           -1.8146   -11.8588    -3.6796 H       
  47 H47            4.0444   -11.3414    -3.8848 H       
  48 H48            3.2794   -12.8915    -5.6006 H       
  49 H49            1.4078   -14.0620    -6.7314 H       
  50 H50           -2.3685    -0.6192    -0.0681 H       
  51 H51           -0.9290    -0.3388     0.9407 H       
  52 H52           -2.5804   -13.4021    -5.4018 H       
  53 H53           -0.9824   -14.4947    -6.9152 H       
  54 H54           -0.2652     1.5834    -2.1113 H       
@<TRIPOS>BOND
   1    1   28 1
   2    1   54 1
   3    2   28 2
   4    3    7 1
   5    3    8 1
   6    3   10 1
   7    4   36 1
   8    4    5 1
   9    4    9 1
  10    5    6 1
  11    5    7 1
  12    5   29 1
  13    6    8 1
  14    6   30 1
  15    6   31 1
  16    7   32 1
  17    7   33 1
  18    8   34 1
  19    8   35 1
  20    9   11 1
  21    9   12 1
  22    9   37 1
  23   10   13 ar
  24   10   14 ar
  25   11   15 ar
  26   11   16 ar
  27   12   38 1
  28   12   39 1
  29   12   40 1
  30   13   18 ar
  31   13   41 1
  32   14   19 ar
  33   14   42 1
  34   15   17 ar
  35   15   21 ar
  36   16   22 ar
  37   16   43 1
  38   17   23 ar
  39   17   24 ar
  40   18   20 ar
  41   18   44 1
  42   19   20 ar
  43   19   45 1
  44   20   25 1
  45   21   26 ar
  46   21   46 1
  47   22   23 ar
  48   22   47 1
  49   23   48 1
  50   24   27 ar
  51   24   49 1
  52   25   28 1
  53   25   50 1
  54   25   51 1
  55   26   27 ar
  56   26   52 1
  57   27   53 1

#	End of record

