#	Name: ASD03331321
#	Creating user name:	WinNT
#	Creation time:	15. 06. 2019 20:39

#	Modifying user name:	WinNT
#	Modification time:	15. 06. 2019 20:39

#	Program:	/corina/corina34_cracker 3.40 0067  02.08.2006

@<TRIPOS>MOLECULE
ASD03331321
  54   56    0    0    0
SMALL
NO_CHARGES


@<TRIPOS>ATOM
   1 C1             0.6173     1.6563    -0.4524 C.3     
   2 C2             0.4963     0.1536    -0.4177 C.2     
   3 C3             1.5300    -0.6853    -0.6696 C.2     
   4 C4             2.9174    -0.2055    -1.0179 C.3     
   5 C5             2.8180     1.2745    -1.4134 C.3     
   6 N6             2.0470     2.0060    -0.3991 N.3     
   7 N7            -0.2862    -1.8951    -0.2155 N.2     
   8 N8             1.0758    -1.9555    -0.5498 N.am    
   9 C9            -0.6359    -0.6271    -0.1360 C.2     
  10 C10            1.8021    -3.0777    -0.7214 C.2     
  11 O11            2.9794    -3.0010    -1.0116 O.2     
  12 N12            1.2224    -4.2851    -0.5710 N.am    
  13 C13            1.0989    -6.6400    -1.1441 C.2     
  14 C14            2.0118    -5.5051    -0.7576 C.3     
  15 C15            2.7316    -5.8513     0.5474 C.3     
  16 C16            1.7085    -5.9656     1.6793 C.3     
  17 O17           -0.0574    -6.6397    -0.7783 O.2     
  18 N18            1.5674    -7.6555    -1.8963 N.am    
  19 C19            0.7133    -8.8114    -2.1802 C.3     
  20 C20            3.4656    -7.1840     0.3869 C.3     
  21 C21            3.7404    -4.7504     0.8810 C.3     
  22 C22           -1.9888    -0.1145     0.1933 C.ar    
  23 C23           -3.1210    -0.8034    -0.2378 C.ar    
  24 C24           -4.3786    -0.3226     0.0717 C.ar    
  25 C25           -4.5140     0.8447     0.8100 C.ar    
  26 C26           -3.3906     1.5309     1.2394 C.ar    
  27 C27           -2.1306     1.0537     0.9391 C.ar    
  28 F28           -5.7451     1.3130     1.1103 F       
  29 F29           -5.4774    -0.9889    -0.3452 F       
  30 H30            0.1795     2.0390    -1.3744 H       
  31 H31            0.1015     2.0865     0.4061 H       
  32 H32            3.5729    -0.3133    -0.1537 H       
  33 H33            3.3093    -0.7853    -1.8537 H       
  34 H34            3.8193     1.6992    -1.4843 H       
  35 H35            2.3191     1.3594    -2.3788 H       
  36 H36            2.1795     3.0019    -0.4929 H       
  37 H37            0.2824    -4.3464    -0.3394 H       
  38 H38            2.7468    -5.3451    -1.5465 H       
  39 H39            0.9898    -6.7498     1.4416 H       
  40 H40            2.2213    -6.2122     2.6090 H       
  41 H41            1.1855    -5.0161     1.7936 H       
  42 H42            2.4700    -7.6209    -2.2497 H       
  43 H43            0.4248    -9.2888    -1.2437 H       
  44 H44           -0.1802    -8.4816    -2.7102 H       
  45 H45            1.2599    -9.5240    -2.7980 H       
  46 H46            4.2284    -7.0880    -0.3858 H       
  47 H47            3.9374    -7.4551     1.3315 H       
  48 H48            2.7541    -7.9586     0.1008 H       
  49 H49            3.2174    -3.8009     0.9954 H       
  50 H50            4.2531    -4.9970     1.8107 H       
  51 H51            4.4692    -4.6689     0.0747 H       
  52 H52           -3.0154    -1.7114    -0.8130 H       
  53 H53           -3.5003     2.4389     1.8137 H       
  54 H54           -1.2554     1.5880     1.2783 H       
@<TRIPOS>BOND
   1    1    2 1
   2    1    6 1
   3    1   30 1
   4    1   31 1
   5    2    3 2
   6    2    9 1
   7    3    4 1
   8    3    8 1
   9    4    5 1
  10    4   32 1
  11    4   33 1
  12    5    6 1
  13    5   34 1
  14    5   35 1
  15    6   36 1
  16    7    8 1
  17    7    9 2
  18    8   10 am
  19    9   22 1
  20   10   11 2
  21   10   12 am
  22   12   14 1
  23   12   37 1
  24   13   17 2
  25   13   18 am
  26   13   14 1
  27   14   15 1
  28   14   38 1
  29   15   16 1
  30   15   20 1
  31   15   21 1
  32   16   39 1
  33   16   40 1
  34   16   41 1
  35   18   19 1
  36   18   42 1
  37   19   43 1
  38   19   44 1
  39   19   45 1
  40   20   46 1
  41   20   47 1
  42   20   48 1
  43   21   49 1
  44   21   50 1
  45   21   51 1
  46   22   23 ar
  47   22   27 ar
  48   23   24 ar
  49   23   52 1
  50   24   25 ar
  51   24   29 1
  52   25   26 ar
  53   25   28 1
  54   26   27 ar
  55   26   53 1
  56   27   54 1

#	End of record

