#	Name: ASD07100010
#	Creating user name:	WinNT
#	Creation time:	15. 06. 2019 21:08

#	Modifying user name:	WinNT
#	Modification time:	15. 06. 2019 21:08

#	Program:	/corina/corina34_cracker 3.40 0067  02.08.2006

@<TRIPOS>MOLECULE
ASD07100010
  32   32    0    0    0
SMALL
NO_CHARGES


@<TRIPOS>ATOM
   1 C1            -0.0677     1.6926     0.1871 C.3     
   2 C2            -0.1344     0.1643     0.2171 C.3     
   3 C3             1.3897     2.1368     0.0474 C.3     
   4 O4            -1.4957    -0.2505     0.3475 O.3     
   5 C5             1.4526     3.6636    -0.0280 C.3     
   6 C6             2.1888     1.6527     1.2591 C.3     
   7 O7             1.9460     1.5777    -1.1442 O.3     
   8 P8            -1.9387    -1.7970     0.4121 P.3     
   9 O9            -3.5456    -1.8948     0.4271 O.3     
  10 O10           -1.3889    -2.5423    -0.8246 O.co2   
  11 O11           -1.3715    -2.4420     1.6963 O.co2   
  12 P12           -4.5957    -3.0903     0.1819 P.3     
  13 O13           -4.3480    -4.2265     1.2318 O.co2   
  14 O14           -6.0555    -2.5436     0.3387 O.co2   
  15 O15           -4.4055    -3.6643    -1.2634 O.co2   
  16 C16            3.6630     2.0541     1.3393 C.3     
  17 C17            2.6410     2.7051     2.2734 C.3     
  18 C18            0.7225     4.1362    -1.2587 C.2     
  19 O19            0.1479     3.3324    -1.9730 O.co2   
  20 O20            0.7064     5.3224    -1.5401 O.co2   
  21 H21           -0.6438     2.0649    -0.6601 H       
  22 H22           -0.4824     2.0926     1.1123 H       
  23 H23            0.2802    -0.2357    -0.7082 H       
  24 H24            0.4416    -0.2079     1.0642 H       
  25 H25            0.9842     4.0908     0.8587 H       
  26 H26            2.4937     3.9824    -0.0783 H       
  27 H27            1.9132     0.6700     1.6419 H       
  28 H28            1.4882     1.8425    -1.9538 H       
  29 H29            4.3572     1.3357     1.7752 H       
  30 H30            4.0636     2.6630     0.5289 H       
  31 H31            2.3692     3.7423     2.0775 H       
  32 H32            2.6628     2.4150     3.3238 H       
@<TRIPOS>BOND
   1    1    2 1
   2    1    3 1
   3    1   21 1
   4    1   22 1
   5    2    4 1
   6    2   23 1
   7    2   24 1
   8    3    5 1
   9    3    6 1
  10    3    7 1
  11    4    8 1
  12    5   18 1
  13    5   25 1
  14    5   26 1
  15    6   16 1
  16    6   17 1
  17    6   27 1
  18    7   28 1
  19    8    9 1
  20    8   10 ar
  21    8   11 ar
  22    9   12 1
  23   12   13 ar
  24   12   14 ar
  25   12   15 ar
  26   16   17 1
  27   16   29 1
  28   16   30 1
  29   17   31 1
  30   17   32 1
  31   18   19 ar
  32   18   20 ar

#	End of record

