#	Name: ASD01001265
#	Creating user name:	WinNT
#	Creation time:	15. 06. 2019 18:55

#	Modifying user name:	WinNT
#	Modification time:	15. 06. 2019 18:55

#	Program:	/corina/corina34_cracker 3.40 0067  02.08.2006

@<TRIPOS>MOLECULE
ASD01001265
  51   54    0    0    0
SMALL
NO_CHARGES


@<TRIPOS>ATOM
   1 C1            -0.4252     1.2477     1.9015 C.ar    
   2 C2            -0.2768    -0.0819     1.4881 C.ar    
   3 C3            -1.3193    -0.7465     0.9077 C.ar    
   4 C4            -2.5384    -0.1072     0.7227 C.ar    
   5 C5            -2.7057     1.2285     1.1324 C.ar    
   6 C6            -1.6422     1.9024     1.7290 C.ar    
   7 N7            -3.7489    -0.4975     0.1825 N.pl3   
   8 C8            -4.5974     0.5698     0.2712 C.2     
   9 N9            -3.9829     1.5826     0.8294 N.2     
  10 C10            0.7096     1.9554     2.5273 C.2     
  11 N11            1.8864     1.3216     2.7000 N.am    
  12 O12            0.5824     3.1099     2.8867 O.2     
  13 N13           -5.9067     0.5794    -0.1634 N.pl3   
  14 C14           -6.6442     1.7694    -0.1378 C.ar    
  15 C15           -8.0197     1.7381    -0.3249 C.ar    
  16 C16           -8.7469     2.9139    -0.2996 C.ar    
  17 C17           -8.1010     4.1250    -0.0870 C.ar    
  18 C18           -6.7275     4.1553     0.0993 C.ar    
  19 C19           -6.0010     2.9806     0.0803 C.ar    
  20 F20          -10.0853     2.8847    -0.4819 F       
  21 O21           -8.8163     5.2819    -0.0620 O.3     
  22 C22           -8.0874     6.4906     0.1614 C.3     
  23 C23           -4.0641    -1.8123    -0.3814 C.3     
  24 C24           -4.4727    -2.7491     0.7260 C.ar    
  25 C25           -4.7259    -4.0791     0.4480 C.ar    
  26 C26           -5.1008    -4.9385     1.4640 C.ar    
  27 C27           -5.2221    -4.4677     2.7579 C.ar    
  28 C28           -4.9680    -3.1375     3.0361 C.ar    
  29 C29           -4.5890    -2.2793     2.0212 C.ar    
  30 C30           -4.5936    -4.5924    -0.9627 C.3     
  31 H31            0.6684    -0.5851     1.6289 H       
  32 H32           -1.1952    -1.7716     0.5914 H       
  33 H33           -1.7583     2.9277     2.0481 H       
  34 H34            1.9879     0.4006     2.4133 H       
  35 H35            2.6319     1.7866     3.1112 H       
  36 H36           -6.3164    -0.2383    -0.4866 H       
  37 H37           -8.5212     0.7960    -0.4905 H       
  38 H38           -6.2258     5.0975     0.2638 H       
  39 H39           -4.9311     3.0051     0.2258 H       
  40 H40           -8.7755     7.3359     0.1575 H       
  41 H41           -7.5826     6.4375     1.1260 H       
  42 H42           -7.3480     6.6204    -0.6289 H       
  43 H43           -4.8820    -1.7149    -1.0953 H       
  44 H44           -3.1850    -2.2105    -0.8883 H       
  45 H45           -5.2993    -5.9776     1.2466 H       
  46 H46           -5.5157    -5.1389     3.5514 H       
  47 H47           -5.0631    -2.7696     4.0471 H       
  48 H48           -4.3905    -1.2402     2.2385 H       
  49 H49           -3.6049    -5.0305    -1.0987 H       
  50 H50           -5.3552    -5.3502    -1.1465 H       
  51 H51           -4.7251    -3.7677    -1.6632 H       
@<TRIPOS>BOND
   1    1    2 ar
   2    1   10 1
   3    1    6 ar
   4    2    3 ar
   5    2   31 1
   6    3    4 ar
   7    3   32 1
   8    4    5 ar
   9    4    7 1
  10    5    6 ar
  11    5    9 1
  12    6   33 1
  13    7    8 1
  14    7   23 1
  15    8    9 2
  16    8   13 1
  17   10   11 am
  18   10   12 2
  19   11   34 1
  20   11   35 1
  21   13   14 1
  22   13   36 1
  23   14   15 ar
  24   14   19 ar
  25   15   16 ar
  26   15   37 1
  27   16   17 ar
  28   16   20 1
  29   17   18 ar
  30   17   21 1
  31   18   19 ar
  32   18   38 1
  33   19   39 1
  34   21   22 1
  35   22   40 1
  36   22   41 1
  37   22   42 1
  38   23   24 1
  39   23   43 1
  40   23   44 1
  41   24   25 ar
  42   24   29 ar
  43   25   26 ar
  44   25   30 1
  45   26   27 ar
  46   26   45 1
  47   27   28 ar
  48   27   46 1
  49   28   29 ar
  50   28   47 1
  51   29   48 1
  52   30   49 1
  53   30   50 1
  54   30   51 1

#	End of record

