#	Name: ASD01420182
#	Creating user name:	WinNT
#	Creation time:	15. 06. 2019 19:20

#	Modifying user name:	WinNT
#	Modification time:	15. 06. 2019 19:20

#	Program:	/corina/corina34_cracker 3.40 0067  02.08.2006

@<TRIPOS>MOLECULE
ASD01420182
  49   52    0    0    0
SMALL
NO_CHARGES


@<TRIPOS>ATOM
   1 C1            -0.0144     1.2120     0.0087 C.2     
   2 O2             0.1292     0.0132     0.1553 O.2     
   3 C3             1.0486     3.4379    -0.4769 C.3     
   4 N4             1.0608     2.0006    -0.1874 N.am    
   5 C5             2.4666     1.5851    -0.1521 C.3     
   6 C6             3.3118     2.8033    -0.4270 C.ar    
   7 C7             4.6839     2.9598    -0.5058 C.ar    
   8 C8             5.2265     4.2085    -0.7764 C.ar    
   9 C9             4.3876     5.2993    -0.9675 C.ar    
  10 C10            3.0195     5.1369    -0.8876 C.ar    
  11 C11            2.4804     3.8898    -0.6174 C.ar    
  12 N12            6.6119     4.3680    -0.8559 N.3     
  13 C13            6.9654     5.7638    -1.1497 C.3     
  14 C14            8.4887     5.9123    -1.1497 C.3     
  15 N15            9.0668     5.0039    -2.1498 N.3     
  16 C16            8.7133     3.6081    -1.8560 C.3     
  17 C17            7.1900     3.4596    -1.8560 C.3     
  18 C18           10.5238     5.1716    -2.2334 C.3     
  19 C19           -1.3641     1.8012     0.0394 C.ar    
  20 C20           -2.2643     1.4470     1.0557 C.ar    
  21 C21           -3.5305     2.0055     1.0779 C.ar    
  22 C22           -3.9069     2.9121     0.0981 C.ar    
  23 C23           -3.0154     3.2647    -0.9116 C.ar    
  24 C24           -1.7513     2.7203    -0.9409 C.ar    
  25 O25           -5.1496     3.4576     0.1233 O.3     
  26 O26           -1.8949     0.5596     2.0133 O.3     
  27 Cl27          -3.4969     4.4000    -2.1334 Cl      
  28 H28            0.5099     3.6230    -1.4062 H       
  29 H29            0.5701     3.9755     0.3417 H       
  30 H30            2.7081     1.1821     0.8314 H       
  31 H31            2.6478     0.8296    -0.9166 H       
  32 H32            5.3335     2.1100    -0.3565 H       
  33 H33            4.8054     6.2728    -1.1779 H       
  34 H34            2.3672     5.9848    -1.0357 H       
  35 H35            6.5731     6.0400    -2.1284 H       
  36 H36            6.5365     6.4155    -0.3885 H       
  37 H37            8.7538     6.9405    -1.3960 H       
  38 H38            8.8784     5.6623    -0.1629 H       
  39 H39            9.1423     2.9564    -2.6172 H       
  40 H40            9.1056     3.3319    -0.8772 H       
  41 H41            6.9249     2.4314    -1.6097 H       
  42 H42            6.8003     3.7096    -2.8427 H       
  43 H43           10.9709     4.9537    -1.2634 H       
  44 H44           10.9260     4.4876    -2.9807 H       
  45 H45           10.7557     6.1979    -2.5180 H       
  46 H46           -4.2261     1.7348     1.8585 H       
  47 H47           -1.0607     2.9994    -1.7229 H       
  48 H48           -5.2082     4.2796     0.6292 H       
  49 H49           -1.4860     0.9662     2.7896 H       
@<TRIPOS>BOND
   1    1    2 2
   2    1    4 am
   3    1   19 1
   4    3    4 1
   5    3   11 1
   6    3   28 1
   7    3   29 1
   8    4    5 1
   9    5    6 1
  10    5   30 1
  11    5   31 1
  12    6    7 ar
  13    6   11 ar
  14    7    8 ar
  15    7   32 1
  16    8    9 ar
  17    8   12 1
  18    9   10 ar
  19    9   33 1
  20   10   11 ar
  21   10   34 1
  22   12   13 1
  23   12   17 1
  24   13   14 1
  25   13   35 1
  26   13   36 1
  27   14   15 1
  28   14   37 1
  29   14   38 1
  30   15   16 1
  31   15   18 1
  32   16   17 1
  33   16   39 1
  34   16   40 1
  35   17   41 1
  36   17   42 1
  37   18   43 1
  38   18   44 1
  39   18   45 1
  40   19   20 ar
  41   19   24 ar
  42   20   21 ar
  43   20   26 1
  44   21   22 ar
  45   21   46 1
  46   22   23 ar
  47   22   25 1
  48   23   24 ar
  49   23   27 1
  50   24   47 1
  51   25   48 1
  52   26   49 1

#	End of record

