#	Name: ASD01881161
#	Creating user name:	WinNT
#	Creation time:	15. 06. 2019 19:42

#	Modifying user name:	WinNT
#	Modification time:	15. 06. 2019 19:42

#	Program:	/corina/corina34_cracker 3.40 0067  02.08.2006

@<TRIPOS>MOLECULE
ASD01881161
  50   52    0    0    0
SMALL
NO_CHARGES


@<TRIPOS>ATOM
   1 Cl1            8.0035     4.6825     0.7251 Cl      
   2 N2            -0.0166     1.3120     0.0180 N.ar    
   3 C3             0.0029    -0.0056     0.0035 C.ar    
   4 N4             1.1338    -0.6824    -0.0192 N.ar    
   5 C5             2.2990    -0.0554    -0.0287 C.ar    
   6 C6             2.3190     1.3305    -0.0145 C.ar    
   7 C7             1.1098     2.0070     0.0097 C.ar    
   8 C8             3.6243     2.0835    -0.0242 C.3     
   9 O9             4.0818     2.2265    -1.3704 O.3     
  10 C10            5.2531     2.8863    -1.5563 C.ar    
  11 C11            5.7559     3.0609    -2.8425 C.ar    
  12 C12            6.9402     3.7285    -3.0303 C.ar    
  13 C13            7.6481     4.2364    -1.9356 C.ar    
  14 C14            7.1385     4.0591    -0.6449 C.ar    
  15 C15            5.9457     3.3914    -0.4634 C.ar    
  16 C16            7.7432     4.0820    -4.2573 C.3     
  17 N17            8.9248     4.8082    -3.7781 N.am    
  18 C18            8.8654     4.8947    -2.4382 C.2     
  19 O19            9.6990     5.4390    -1.7400 O.2     
  20 C20           -1.7644    -0.9978    -1.4251 C.3     
  21 C21           -1.3024    -0.7585     0.0137 C.3     
  22 C22            9.6452     6.7838    -5.0268 C.3     
  23 C23            9.9931     5.3501    -4.6214 C.3     
  24 C24            1.0777     3.5135     0.0254 C.3     
  25 F25            1.8099     4.0069    -1.0598 F       
  26 F26           -0.2473     3.9527    -0.0678 F       
  27 F27            1.6406     3.9795     1.2183 F       
  28 C28            4.0030    -1.0877    -1.5051 C.3     
  29 C29            3.5868    -0.8376    -0.0542 C.3     
  30 H30            3.4782     3.0697     0.4166 H       
  31 H31            4.3657     1.5330     0.5549 H       
  32 H32            5.2146     2.6710    -3.6919 H       
  33 H33            5.5521     3.2544     0.5330 H       
  34 H34            8.0472     3.1752    -4.7803 H       
  35 H35            7.1556     4.7179    -4.9194 H       
  36 H36           -2.7085    -1.5424    -1.4178 H       
  37 H37           -1.9014    -0.0399    -1.9268 H       
  38 H38           -1.0123    -1.5816    -1.9559 H       
  39 H39           -1.1654    -1.7165     0.5154 H       
  40 H40           -2.0545    -0.1747     0.5444 H       
  41 H41           10.4401     7.1870    -5.6543 H       
  42 H42            8.7072     6.7869    -5.5820 H       
  43 H43            9.5405     7.3988    -4.1330 H       
  44 H44           10.9312     5.3470    -4.0663 H       
  45 H45           10.0978     4.7350    -5.5152 H       
  46 H46            3.2235    -1.6546    -2.0141 H       
  47 H47            4.1475    -0.1333    -2.0113 H       
  48 H48            4.9345    -1.6534    -1.5235 H       
  49 H49            4.3663    -0.2707     0.4548 H       
  50 H50            3.4423    -1.7920     0.4520 H       
@<TRIPOS>BOND
   1    1   14 1
   2    2    3 ar
   3    2    7 ar
   4    3    4 ar
   5    3   21 1
   6    4    5 ar
   7    5    6 ar
   8    5   29 1
   9    6    7 ar
  10    6    8 1
  11    7   24 1
  12    8    9 1
  13    8   30 1
  14    8   31 1
  15    9   10 1
  16   10   11 ar
  17   10   15 ar
  18   11   12 ar
  19   11   32 1
  20   12   13 ar
  21   12   16 1
  22   13   14 ar
  23   13   18 1
  24   14   15 ar
  25   15   33 1
  26   16   17 1
  27   16   34 1
  28   16   35 1
  29   17   18 am
  30   17   23 1
  31   18   19 2
  32   20   21 1
  33   20   36 1
  34   20   37 1
  35   20   38 1
  36   21   39 1
  37   21   40 1
  38   22   23 1
  39   22   41 1
  40   22   42 1
  41   22   43 1
  42   23   44 1
  43   23   45 1
  44   24   25 1
  45   24   26 1
  46   24   27 1
  47   28   29 1
  48   28   46 1
  49   28   47 1
  50   28   48 1
  51   29   49 1
  52   29   50 1

#	End of record

