#	Name: ASD09530013
#	Creating user name:	WinNT
#	Creation time:	15. 06. 2019 21:22

#	Modifying user name:	WinNT
#	Modification time:	15. 06. 2019 21:22

#	Program:	/corina/corina34_cracker 3.40 0067  02.08.2006

@<TRIPOS>MOLECULE
ASD09530013
  42   44    0    0    0
SMALL
NO_CHARGES


@<TRIPOS>ATOM
   1 N1             0.2794     1.0708     0.7714 N.am    
   2 C2             0.3213    -0.2596     0.6847 C.2     
   3 C3             1.6050    -1.0326     0.5520 C.3     
   4 N4             2.6934    -0.0967     0.2325 N.am    
   5 C5             2.7272     1.1771     0.9707 C.3     
   6 C6             1.4401     1.9435     0.6597 C.3     
   7 O7            -0.7237    -0.8744     0.7148 O.2     
   8 C8             3.6225    -0.3930    -0.6979 C.2     
   9 O9             4.5096     0.3971    -0.9420 O.2     
  10 C10            3.5589    -1.7060    -1.4348 C.3     
  11 N11            4.6714    -1.7872    -2.3846 N.pl3   
  12 C12            5.8919    -2.3375    -1.9854 C.ar    
  13 C13            6.0930    -2.6965    -0.6585 C.ar    
  14 C14            7.3005    -3.2407    -0.2674 C.ar    
  15 C15            8.3091    -3.4280    -1.1949 C.ar    
  16 C16            8.1123    -3.0718    -2.5166 C.ar    
  17 C17            6.9053    -2.5324    -2.9156 C.ar    
  18 C18            4.5118    -1.3143    -3.6895 C.ar    
  19 C19            3.6234    -1.9420    -4.5537 C.ar    
  20 C20            3.4677    -1.4717    -5.8428 C.ar    
  21 C21            4.1952    -0.3775    -6.2738 C.ar    
  22 C22            5.0804     0.2498    -5.4162 C.ar    
  23 C23            5.2368    -0.2118    -4.1241 C.ar    
  24 H24           -0.5852     1.4864     0.9149 H       
  25 H25            1.8242    -1.5404     1.4913 H       
  26 H26            1.5081    -1.7666    -0.2479 H       
  27 H27            2.7887     0.9804     2.0410 H       
  28 H28            3.5899     1.7631     0.6537 H       
  29 H29            1.4947     2.3400    -0.3541 H       
  30 H30            1.3362     2.7703     1.3624 H       
  31 H31            3.6297    -2.5269    -0.7213 H       
  32 H32            2.6145    -1.7742    -1.9747 H       
  33 H33            5.3061    -2.5499     0.0665 H       
  34 H34            7.4576    -3.5200     0.7639 H       
  35 H35            9.2527    -3.8531    -0.8863 H       
  36 H36            8.9022    -3.2191    -3.2383 H       
  37 H37            6.7506    -2.2586    -3.9488 H       
  38 H38            3.0555    -2.7971    -4.2179 H       
  39 H39            2.7773    -1.9592    -6.5151 H       
  40 H40            4.0721    -0.0121    -7.2827 H       
  41 H41            5.6473     1.1039    -5.7562 H       
  42 H42            5.9249     0.2813    -3.4534 H       
@<TRIPOS>BOND
   1    1    2 am
   2    1    6 1
   3    1   24 1
   4    2    3 1
   5    2    7 2
   6    3    4 1
   7    3   25 1
   8    3   26 1
   9    4    5 1
  10    4    8 am
  11    5    6 1
  12    5   27 1
  13    5   28 1
  14    6   29 1
  15    6   30 1
  16    8    9 2
  17    8   10 1
  18   10   11 1
  19   10   31 1
  20   10   32 1
  21   11   12 1
  22   11   18 1
  23   12   13 ar
  24   12   17 ar
  25   13   14 ar
  26   13   33 1
  27   14   15 ar
  28   14   34 1
  29   15   16 ar
  30   15   35 1
  31   16   17 ar
  32   16   36 1
  33   17   37 1
  34   18   19 ar
  35   18   23 ar
  36   19   20 ar
  37   19   38 1
  38   20   21 ar
  39   20   39 1
  40   21   22 ar
  41   21   40 1
  42   22   23 ar
  43   22   41 1
  44   23   42 1

#	End of record

