#	Name: ASD09116064
#	Creating user name:	WinNT
#	Creation time:	15. 06. 2019 21:20

#	Modifying user name:	WinNT
#	Modification time:	15. 06. 2019 21:20

#	Program:	/corina/corina34_cracker 3.40 0067  02.08.2006

@<TRIPOS>MOLECULE
ASD09116064
  73   78    0    0    0
SMALL
NO_CHARGES


@<TRIPOS>ATOM
   1 C1            -5.1490    -1.1138     2.5483 C.ar    
   2 N2            -4.1459    -2.0167     2.2054 N.pl3   
   3 N3            -3.2001    -1.8742     1.1773 N.2     
   4 C4            -2.4456    -2.9463     1.1991 C.2     
   5 N5            -2.8608    -3.7555     2.1807 N.2     
   6 C6            -3.8833    -3.2097     2.8033 C.2     
   7 N7            -4.5726    -3.7549     3.8690 N.pl3   
   8 N8            -1.3800    -3.2024     0.3368 N.pl3   
   9 N9            -5.9616    -1.4048     3.5519 N.ar    
  10 N10           -5.2607     0.0178     1.8634 N.ar    
  11 C11           -6.2023     0.8830     2.1701 C.ar    
  12 C12           -7.0687     0.6143     3.2213 C.ar    
  13 C13           -6.9256    -0.5701     3.9149 C.ar    
  14 C14           -6.4078     2.1684     1.4150 C.3     
  15 C15           -5.7581     3.3334     2.0907 C.3     
  16 C16           -6.4591     3.9546     3.2828 C.3     
  17 C17           -6.2957     3.0626     4.5269 C.3     
  18 C18           -7.6704     2.3979     4.8170 C.3     
  19 C19           -8.1181     1.6305     3.5740 C.3     
  20 C20           -0.7207    -4.4368     0.3859 C.ar    
  21 C21           -1.4148    -5.5803     0.7589 C.ar    
  22 C22           -0.7637    -6.7988     0.8069 C.ar    
  23 C23            0.5859    -6.8784     0.4815 C.ar    
  24 C24            1.2782    -5.7347     0.1089 C.ar    
  25 C25            0.6259    -4.5183     0.0561 C.ar    
  26 N26            1.2469    -8.1131     0.5303 N.3     
  27 C27            1.7913    -8.4709    -0.7858 C.3     
  28 C28            2.3763    -9.8840    -0.7303 C.3     
  29 C29            3.4800    -9.9329     0.3298 C.3     
  30 C30            2.8980    -9.5094     1.6813 C.3     
  31 C31            2.2979    -8.1072     1.5559 C.3     
  32 N32            4.0054   -11.3012     0.4287 N.3     
  33 C33            4.6542   -11.7103    -0.8306 C.3     
  34 C34            6.1033   -12.1152    -0.4878 C.3     
  35 C35            6.0231   -12.4543     1.0240 C.3     
  36 C36            4.9920   -11.4121     1.5242 C.3     
  37 F37           -1.4381    -7.9117     1.1701 F       
  38 H38           -4.3124    -4.6195     4.2236 H       
  39 H39           -5.3167    -3.2732     4.2629 H       
  40 H40           -1.0955    -2.5255    -0.2971 H       
  41 H41           -7.5873    -0.8139     4.7329 H       
  42 H42           -5.9887     2.0613     0.4145 H       
  43 H43           -7.4772     2.3608     1.3295 H       
  44 H44           -4.7676     3.0165     2.4173 H       
  45 H45           -5.6204     4.1149     1.3434 H       
  46 H46           -6.0281     4.9355     3.4834 H       
  47 H47           -7.5195     4.0691     3.0580 H       
  48 H48           -5.5471     2.2941     4.3347 H       
  49 H49           -5.9920     3.6700     5.3796 H       
  50 H50           -7.5734     1.7093     5.6563 H       
  51 H51           -8.4050     3.1670     5.0558 H       
  52 H52           -8.2472     2.3247     2.7436 H       
  53 H53           -9.0617     1.1245     3.7781 H       
  54 H54           -2.4629    -5.5176     1.0118 H       
  55 H55            2.3265    -5.7964    -0.1435 H       
  56 H56            1.1652    -3.6288    -0.2343 H       
  57 H57            0.9954    -8.4363    -1.5297 H       
  58 H58            2.5747    -7.7640    -1.0592 H       
  59 H59            1.5904   -10.5932    -0.4705 H       
  60 H60            2.7942   -10.1433    -1.7030 H       
  61 H61            4.2842    -9.2523     0.0502 H       
  62 H62            2.1203   -10.2128     1.9791 H       
  63 H63            3.6886    -9.5012     2.4315 H       
  64 H64            3.0789    -7.4020     1.2715 H       
  65 H65            1.8699    -7.8085     2.5128 H       
  66 H66            4.1241   -12.5595    -1.2619 H       
  67 H67            4.6583   -10.8772    -1.5333 H       
  68 H68            6.4055   -12.9900    -1.0635 H       
  69 H69            6.7868   -11.2839    -0.6605 H       
  70 H70            5.6579   -13.4697     1.1776 H       
  71 H71            6.9892   -12.3111     1.5081 H       
  72 H72            5.4769   -10.4512     1.6969 H       
  73 H73            4.5089   -11.7635     2.4359 H       
@<TRIPOS>BOND
   1    1    2 1
   2    1    9 ar
   3    1   10 ar
   4    2    3 1
   5    2    6 1
   6    3    4 2
   7    4    5 1
   8    4    8 1
   9    5    6 2
  10    6    7 1
  11    7   38 1
  12    7   39 1
  13    8   20 1
  14    8   40 1
  15    9   13 ar
  16   10   11 ar
  17   11   12 ar
  18   11   14 1
  19   12   13 ar
  20   12   19 1
  21   13   41 1
  22   14   15 1
  23   14   42 1
  24   14   43 1
  25   15   16 1
  26   15   44 1
  27   15   45 1
  28   16   17 1
  29   16   46 1
  30   16   47 1
  31   17   18 1
  32   17   48 1
  33   17   49 1
  34   18   19 1
  35   18   50 1
  36   18   51 1
  37   19   52 1
  38   19   53 1
  39   20   21 ar
  40   20   25 ar
  41   21   22 ar
  42   21   54 1
  43   22   23 ar
  44   22   37 1
  45   23   24 ar
  46   23   26 1
  47   24   25 ar
  48   24   55 1
  49   25   56 1
  50   26   27 1
  51   26   31 1
  52   27   28 1
  53   27   57 1
  54   27   58 1
  55   28   29 1
  56   28   59 1
  57   28   60 1
  58   29   30 1
  59   29   32 1
  60   29   61 1
  61   30   31 1
  62   30   62 1
  63   30   63 1
  64   31   64 1
  65   31   65 1
  66   32   33 1
  67   32   36 1
  68   33   34 1
  69   33   66 1
  70   33   67 1
  71   34   35 1
  72   34   68 1
  73   34   69 1
  74   35   36 1
  75   35   70 1
  76   35   71 1
  77   36   72 1
  78   36   73 1

#	End of record

