#	Name: ASD01320074
#	Creating user name:	WinNT
#	Creation time:	15. 06. 2019 19:15

#	Modifying user name:	WinNT
#	Modification time:	15. 06. 2019 19:15

#	Program:	/corina/corina34_cracker 3.40 0067  02.08.2006

@<TRIPOS>MOLECULE
ASD01320074
  54   57    0    0    0
SMALL
NO_CHARGES


@<TRIPOS>ATOM
   1 O1             0.9872    -2.6854     2.8177 O.3     
   2 C2             0.4527    -2.2806     1.5558 C.3     
   3 C3             1.2902    -2.8889     0.4285 C.3     
   4 C4             0.7353    -2.4249    -0.9219 C.3     
   5 N5            -0.6944    -2.7576    -0.9853 N.am    
   6 C6            -1.5752    -2.2986     0.0973 C.3     
   7 C7            -0.9945    -2.7640     1.4363 C.3     
   8 C8            -1.1885    -3.4701    -2.0171 C.2     
   9 O9            -2.3512    -3.8153    -2.0141 O.2     
  10 C10           -0.2964    -3.8378    -3.1747 C.3     
  11 N11           -0.9013    -4.9400    -3.9265 N.am    
  12 C12           -0.1240    -5.7643    -4.6565 C.2     
  13 O13            1.0798    -5.5931    -4.6911 O.2     
  14 C14           -0.7313    -6.8708    -5.4112 C.2     
  15 C15           -0.0553    -7.7644    -6.1798 C.2     
  16 C16           -1.0016    -8.6622    -6.7304 C.ar    
  17 C17           -2.2677    -8.2658    -6.2577 C.ar    
  18 N18           -2.0792    -7.1709    -5.4470 N.pl3   
  19 C19           -3.3977    -8.9807    -6.6452 C.ar    
  20 C20           -3.2680   -10.0646    -7.4839 C.ar    
  21 C21           -2.0172   -10.4547    -7.9492 C.ar    
  22 C22           -0.8948    -9.7687    -7.5834 C.ar    
  23 Cl23          -1.8814   -11.8257    -9.0055 Cl      
  24 C24           -0.1274    -2.6260    -4.0934 C.3     
  25 C25            0.8705    -2.9508    -5.1749 C.ar    
  26 C26            0.4414    -3.5041    -6.3670 C.ar    
  27 C27            1.3556    -3.8019    -7.3597 C.ar    
  28 C28            2.7016    -3.5460    -7.1600 C.ar    
  29 C29            3.1301    -2.9919    -5.9657 C.ar    
  30 C30            2.2135    -2.6900    -4.9765 C.ar    
  31 F31            3.5962    -3.8372    -8.1296 F       
  32 H32            0.5049    -2.3360     3.5795 H       
  33 H33            0.4794    -1.1934     1.4820 H       
  34 H34            2.3255    -2.5629     0.5279 H       
  35 H35            1.2435    -3.9764     0.4868 H       
  36 H36            0.8643    -1.3469    -1.0190 H       
  37 H37            1.2647    -2.9324    -1.7283 H       
  38 H38           -1.6347    -1.2103     0.0834 H       
  39 H39           -2.5703    -2.7227    -0.0365 H       
  40 H40           -1.0196    -3.8526     1.4851 H       
  41 H41           -1.5852    -2.3490     2.2530 H       
  42 H42            0.6787    -4.1469    -2.7980 H       
  43 H43           -1.8612    -5.0766    -3.8990 H       
  44 H44            1.0122    -7.7859    -6.3417 H       
  45 H45           -2.7784    -6.6856    -4.9819 H       
  46 H46           -4.3736    -8.6859    -6.2885 H       
  47 H47           -4.1461   -10.6175    -7.7831 H       
  48 H48            0.0727   -10.0786    -7.9498 H       
  49 H49           -1.0869    -2.3774    -4.5470 H       
  50 H50            0.2306    -1.7764    -3.5120 H       
  51 H51           -0.6085    -3.7039    -6.5224 H       
  52 H52            1.0202    -4.2345    -8.2908 H       
  53 H53            4.1798    -2.7919    -5.8088 H       
  54 H54            2.5475    -2.2578    -4.0448 H       
@<TRIPOS>BOND
   1    1    2 1
   2    1   32 1
   3    2    3 1
   4    2    7 1
   5    2   33 1
   6    3    4 1
   7    3   34 1
   8    3   35 1
   9    4    5 1
  10    4   36 1
  11    4   37 1
  12    5    6 1
  13    5    8 am
  14    6    7 1
  15    6   38 1
  16    6   39 1
  17    7   40 1
  18    7   41 1
  19    8    9 2
  20    8   10 1
  21   10   11 1
  22   10   24 1
  23   10   42 1
  24   11   12 am
  25   11   43 1
  26   12   13 2
  27   12   14 1
  28   14   15 2
  29   14   18 1
  30   15   16 1
  31   15   44 1
  32   16   17 ar
  33   16   22 ar
  34   17   18 1
  35   17   19 ar
  36   18   45 1
  37   19   20 ar
  38   19   46 1
  39   20   21 ar
  40   20   47 1
  41   21   22 ar
  42   21   23 1
  43   22   48 1
  44   24   25 1
  45   24   49 1
  46   24   50 1
  47   25   26 ar
  48   25   30 ar
  49   26   27 ar
  50   26   51 1
  51   27   28 ar
  52   27   52 1
  53   28   29 ar
  54   28   31 1
  55   29   30 ar
  56   29   53 1
  57   30   54 1

#	End of record

