#	Name: ASD01885637
#	Creating user name:	WinNT
#	Creation time:	15. 06. 2019 19:49

#	Modifying user name:	WinNT
#	Modification time:	15. 06. 2019 19:49

#	Program:	/corina/corina34_cracker 3.40 0067  02.08.2006

@<TRIPOS>MOLECULE
ASD01885637
  37   39    0    0    0
SMALL
NO_CHARGES


@<TRIPOS>ATOM
   1 C1            -0.0172     1.4137     0.0098 C.ar    
   2 C2             0.0021    -0.0041     0.0020 C.ar    
   3 C3            -1.2276    -0.7095     0.0099 C.ar    
   4 C4            -2.4013     0.0311     0.0251 C.ar    
   5 C5            -2.3342     1.4292     0.0320 C.ar    
   6 N6            -1.1791     2.0669     0.0299 N.ar    
   7 C7             1.2053     2.1130     0.0019 C.ar    
   8 C8             2.3775     1.4230    -0.0130 C.ar    
   9 C9             2.3912     0.0293    -0.0210 C.ar    
  10 C10            1.2287    -0.6812    -0.0128 C.ar    
  11 C11           -1.2588    -2.1903     0.0017 C.ar    
  12 C12           -2.0398    -2.8794     0.9295 C.ar    
  13 C13           -2.0647    -4.2589     0.9169 C.ar    
  14 C14           -1.3171    -4.9585    -0.0135 C.ar    
  15 C15           -0.5405    -4.2807    -0.9363 C.ar    
  16 C16           -0.5118    -2.9012    -0.9375 C.ar    
  17 C17           -3.5927     2.2132     0.0482 C.2     
  18 N18           -3.5475     3.5602     0.0551 N.am    
  19 O19           -4.6647     1.6413     0.0553 O.2     
  20 C20           -1.3484    -6.4652    -0.0215 C.3     
  21 C21            3.6820     2.1774    -0.0214 C.3     
  22 H22           -3.3592    -0.4676     0.0311 H       
  23 H23            1.2121     3.1930     0.0072 H       
  24 H24            3.3357    -0.4943    -0.0331 H       
  25 H25            1.2525    -1.7609    -0.0192 H       
  26 H26           -2.6235    -2.3343     1.6565 H       
  27 H27           -2.6687    -4.7936     1.6349 H       
  28 H28            0.0413    -4.8324    -1.6599 H       
  29 H29            0.0945    -2.3732    -1.6586 H       
  30 H30           -2.6917     4.0167     0.0494 H       
  31 H31           -4.3708     4.0730     0.0657 H       
  32 H32           -2.1495    -6.8085    -0.6761 H       
  33 H33           -0.3940    -6.8465    -0.3845 H       
  34 H34           -1.5243    -6.8303     0.9903 H       
  35 H35            4.0063     2.3538     1.0042 H       
  36 H36            4.4371     1.5916    -0.5455 H       
  37 H37            3.5461     3.1324    -0.5288 H       
@<TRIPOS>BOND
   1    1    2 ar
   2    1    7 ar
   3    1    6 ar
   4    2    3 ar
   5    2   10 ar
   6    3    4 ar
   7    3   11 1
   8    4    5 ar
   9    4   22 1
  10    5    6 ar
  11    5   17 1
  12    7    8 ar
  13    7   23 1
  14    8    9 ar
  15    8   21 1
  16    9   10 ar
  17    9   24 1
  18   10   25 1
  19   11   12 ar
  20   11   16 ar
  21   12   13 ar
  22   12   26 1
  23   13   14 ar
  24   13   27 1
  25   14   15 ar
  26   14   20 1
  27   15   16 ar
  28   15   28 1
  29   16   29 1
  30   17   18 am
  31   17   19 2
  32   18   30 1
  33   18   31 1
  34   20   32 1
  35   20   33 1
  36   20   34 1
  37   21   35 1
  38   21   36 1
  39   21   37 1

#	End of record

