#	Name: ASD08150472
#	Creating user name:	WinNT
#	Creation time:	15. 06. 2019 21:16

#	Modifying user name:	WinNT
#	Modification time:	15. 06. 2019 21:16

#	Program:	/corina/corina34_cracker 3.40 0067  02.08.2006

@<TRIPOS>MOLECULE
ASD08150472
  61   67    0    0    0
SMALL
NO_CHARGES


@<TRIPOS>ATOM
   1 N1             0.3431     2.1584    -0.8277 N.am    
   2 C2             0.5652     0.8318    -0.7518 C.2     
   3 C3             1.8131     0.2851    -1.1139 C.2     
   4 C4             2.8136     1.0940    -1.5465 C.2     
   5 C5             2.5835     2.4901    -1.6276 C.ar    
   6 C6             3.5868     3.3732    -2.0702 C.ar    
   7 N7             3.3716     4.6607    -2.1444 N.ar    
   8 C8             2.1959     5.2124    -1.8075 C.ar    
   9 C9             1.1291     4.3994    -1.3513 C.ar    
  10 C10            1.3297     3.0020    -1.2595 C.ar    
  11 C11           -0.0918     4.9842    -1.0017 C.ar    
  12 C12           -0.2452     6.3573    -1.1057 C.ar    
  13 C13            0.8149     7.1553    -1.5584 C.ar    
  14 C14            2.0083     6.6011    -1.9022 C.ar    
  15 O15           -0.3249     0.0942    -0.3644 O.2     
  16 C16           -1.5370     6.9858    -0.7369 C.ar    
  17 C17           -0.9071     2.6763    -0.4678 C.ar    
  18 C18           -1.9571     2.6508    -1.3765 C.ar    
  19 C19           -3.1894     3.1615    -1.0214 C.ar    
  20 C20           -3.3793     3.7005     0.2438 C.ar    
  21 C21           -2.3295     3.7260     1.1526 C.ar    
  22 C22           -1.0989     3.2105     0.8002 C.ar    
  23 N23           -4.6316     4.2198     0.6042 N.pl3   
  24 C24           -5.3981     5.0641    -0.1335 C.2     
  25 C25           -2.6426     6.1870    -0.4043 C.ar    
  26 N26           -3.7944     6.7141    -0.0751 N.ar    
  27 C27           -3.9758     8.0385    -0.0386 C.ar    
  28 C28           -2.9069     8.9124    -0.3608 C.ar    
  29 C29           -1.6600     8.3676    -0.7125 C.ar    
  30 C30           -5.2208     8.5862     0.3170 C.ar    
  31 C31           -5.3817     9.9373     0.3468 C.ar    
  32 C32           -4.3298    10.7945     0.0293 C.ar    
  33 C33           -3.1095    10.3024    -0.3198 C.ar    
  34 N34           -6.4905     5.3229     0.5324 N.2     
  35 C35           -6.4648     4.6653     1.7011 C.2     
  36 C36           -5.3156     3.9661     1.7648 C.2     
  37 C37           -7.5387     4.6986     2.7578 C.3     
  38 C38           -4.3287     3.1344    -2.0075 C.3     
  39 F39           -3.9593     2.3799    -3.1262 F       
  40 F40           -5.4523     2.5573    -1.4062 F       
  41 F41           -4.6321     4.4408    -2.4056 F       
  42 H42            1.9737    -0.7807    -1.0464 H       
  43 H43            3.7714     0.6796    -1.8247 H       
  44 H44            4.5520     2.9799    -2.3533 H       
  45 H45           -0.9093     4.3702    -0.6536 H       
  46 H46            0.6820     8.2243    -1.6355 H       
  47 H47            2.8145     7.2309    -2.2483 H       
  48 H48           -1.8094     2.2319    -2.3609 H       
  49 H49           -2.4775     4.1454     2.1368 H       
  50 H50           -0.2826     3.2304     1.5070 H       
  51 H51           -5.1459     5.4560    -1.1077 H       
  52 H52           -2.5403     5.1119    -0.4209 H       
  53 H53           -0.8252     9.0050    -0.9636 H       
  54 H54           -6.0471     7.9367     0.5654 H       
  55 H55           -6.3406    10.3519     0.6208 H       
  56 H56           -4.4849    11.8628     0.0603 H       
  57 H57           -2.3016    10.9764    -0.5631 H       
  58 H58           -4.9920     3.3324     2.5772 H       
  59 H59           -8.2580     3.9015     2.5700 H       
  60 H60           -7.0870     4.5567     3.7396 H       
  61 H61           -8.0480     5.6619     2.7280 H       
@<TRIPOS>BOND
   1    1    2 am
   2    1   10 1
   3    1   17 1
   4    2    3 1
   5    2   15 2
   6    3    4 2
   7    3   42 1
   8    4    5 1
   9    4   43 1
  10    5    6 ar
  11    5   10 ar
  12    6    7 ar
  13    6   44 1
  14    7    8 ar
  15    8    9 ar
  16    8   14 ar
  17    9   10 ar
  18    9   11 ar
  19   11   12 ar
  20   11   45 1
  21   12   13 ar
  22   12   16 1
  23   13   14 ar
  24   13   46 1
  25   14   47 1
  26   16   25 ar
  27   16   29 ar
  28   17   18 ar
  29   17   22 ar
  30   18   19 ar
  31   18   48 1
  32   19   20 ar
  33   19   38 1
  34   20   21 ar
  35   20   23 1
  36   21   22 ar
  37   21   49 1
  38   22   50 1
  39   23   24 1
  40   23   36 1
  41   24   34 2
  42   24   51 1
  43   25   26 ar
  44   25   52 1
  45   26   27 ar
  46   27   28 ar
  47   27   30 ar
  48   28   29 ar
  49   28   33 ar
  50   29   53 1
  51   30   31 ar
  52   30   54 1
  53   31   32 ar
  54   31   55 1
  55   32   33 ar
  56   32   56 1
  57   33   57 1
  58   34   35 1
  59   35   36 2
  60   35   37 1
  61   36   58 1
  62   37   59 1
  63   37   60 1
  64   37   61 1
  65   38   39 1
  66   38   40 1
  67   38   41 1

#	End of record

