#	Name: ASD01190104
#	Creating user name:	WinNT
#	Creation time:	15. 06. 2019 19:07

#	Modifying user name:	WinNT
#	Modification time:	15. 06. 2019 19:07

#	Program:	/corina/corina34_cracker 3.40 0067  02.08.2006

@<TRIPOS>MOLECULE
ASD01190104
  41   44    0    0    0
SMALL
NO_CHARGES


@<TRIPOS>ATOM
   1 N1             5.5773     0.0264     2.9627 N.pl3   
   2 C2             6.5284    -0.2081     1.9967 C.2     
   3 C3             5.9485     0.0458     0.7720 C.2     
   4 C4             4.6275     0.4387     1.0156 C.2     
   5 C5             4.4285     0.4182     2.3544 C.2     
   6 C6             7.8758    -0.6371     2.2224 C.1     
   7 N7             8.9448    -0.9774     2.4015 N.1     
   8 C8             3.6079     0.8180    -0.0272 C.3     
   9 C9             3.5582    -0.2631    -1.1088 C.3     
  10 O10            2.3224     0.9386     0.5851 O.3     
  11 N11            5.2820     5.6269    -2.4108 N.pl3   
  12 N12            6.5716     5.2415    -2.7915 N.2     
  13 C13            6.7916     4.0061    -2.4405 C.2     
  14 C14            5.5888     3.5082    -1.7806 C.ar    
  15 C15            5.2322     2.2848    -1.2024 C.ar    
  16 C16            3.9930     2.1348    -0.6506 C.ar    
  17 C17            3.0828     3.1848    -0.6586 C.ar    
  18 C18            3.4077     4.3883    -1.2175 C.ar    
  19 C19            4.6646     4.5710    -1.7875 C.ar    
  20 C20            4.7139     6.8893    -2.6257 C.ar    
  21 C21            5.5057     8.0282    -2.5608 C.ar    
  22 C22            4.9437     9.2717    -2.7729 C.ar    
  23 C23            3.5915     9.3834    -3.0502 C.ar    
  24 C24            2.8001     8.2488    -3.1154 C.ar    
  25 C25            3.3593     7.0029    -2.9096 C.ar    
  26 F26            3.0435    10.6008    -3.2569 F       
  27 F27            3.2007    -1.4856    -0.5301 F       
  28 F28            2.6117     0.0890    -2.0769 F       
  29 F29            4.8167    -0.3812    -1.7083 F       
  30 H30            5.7049    -0.0753     3.9188 H       
  31 H31            6.4243    -0.0415    -0.1936 H       
  32 H32            3.5067     0.6720     2.8566 H       
  33 H33            2.2800     1.6075     1.2822 H       
  34 H34            7.7018     3.4495    -2.6084 H       
  35 H35            5.9338     1.4637    -1.1930 H       
  36 H36            2.1064     3.0476    -0.2178 H       
  37 H37            2.6909     5.1962    -1.2174 H       
  38 H38            6.5602     7.9416    -2.3442 H       
  39 H39            5.5591    10.1578    -2.7221 H       
  40 H40            1.7457     8.3380    -3.3314 H       
  41 H41            2.7427     6.1180    -2.9653 H       
@<TRIPOS>BOND
   1    1    2 1
   2    1    5 1
   3    1   30 1
   4    2    3 2
   5    2    6 1
   6    3    4 1
   7    3   31 1
   8    4    5 2
   9    4    8 1
  10    5   32 1
  11    6    7 3
  12    8    9 1
  13    8   10 1
  14    8   16 1
  15    9   27 1
  16    9   28 1
  17    9   29 1
  18   10   33 1
  19   11   12 1
  20   11   19 1
  21   11   20 1
  22   12   13 2
  23   13   14 1
  24   13   34 1
  25   14   15 ar
  26   14   19 ar
  27   15   16 ar
  28   15   35 1
  29   16   17 ar
  30   17   18 ar
  31   17   36 1
  32   18   19 ar
  33   18   37 1
  34   20   21 ar
  35   20   25 ar
  36   21   22 ar
  37   21   38 1
  38   22   23 ar
  39   22   39 1
  40   23   24 ar
  41   23   26 1
  42   24   25 ar
  43   24   40 1
  44   25   41 1

#	End of record

