#	Name: ASD02500807
#	Creating user name:	WinNT
#	Creation time:	15. 06. 2019 20:23

#	Modifying user name:	WinNT
#	Modification time:	15. 06. 2019 20:23

#	Program:	/corina/corina34_cracker 3.40 0067  02.08.2006

@<TRIPOS>MOLECULE
ASD02500807
  50   52    0    0    0
SMALL
NO_CHARGES


@<TRIPOS>ATOM
   1 C1            -0.0167     1.3829     0.0096 C.ar    
   2 C2             0.0021    -0.0041     0.0020 C.ar    
   3 C3            -1.1871    -0.7116     0.0095 C.ar    
   4 C4            -2.3954    -0.0357     0.0242 C.ar    
   5 C5            -2.4157     1.3487     0.0318 C.ar    
   6 C6            -1.2278     2.0587     0.0306 C.ar    
   7 N7            -4.3156    -1.1982     1.6166 N.am    
   8 C8            -5.1473    -0.2292     2.3441 C.3     
   9 C9            -6.3666    -0.9623     2.9167 C.3     
  10 N10           -5.9030    -2.1666     3.6200 N.am    
  11 C11           -5.0713    -3.1356     2.8926 C.3     
  12 C12           -3.8566    -2.4052     2.3183 C.3     
  13 C13           -7.8235    -3.3286     5.2124 C.ar    
  14 C14           -7.8039    -4.7109     5.2042 C.ar    
  15 C15           -8.9902    -5.4216     5.2102 C.ar    
  16 C16          -10.1979    -4.7516     5.2245 C.ar    
  17 C17          -10.2203    -3.3643     5.2333 C.ar    
  18 C18           -9.0290    -2.6537     5.2329 C.ar    
  19 F19           -1.1692    -2.0624     0.0021 F       
  20 F20           -3.5955     2.0067     0.0457 F       
  21 O21            1.1504     2.0789     0.0022 O.3     
  22 C22            1.0555     3.5047     0.0108 C.3     
  23 S23           -6.3099    -2.4267     5.2040 S.o2    
  24 O24           -5.3207    -3.2981     5.7345 O.2     
  25 O25           -6.5999    -1.1509     5.7585 O.2     
  26 S26           -3.9088    -0.9381     0.0326 S.o2    
  27 O27           -4.8983    -0.0672    -0.4981 O.2     
  28 O28           -3.6182    -2.2139    -0.5218 O.2     
  29 O29          -11.4074    -2.7028     5.2469 O.3     
  30 C30          -12.5939    -3.4992     5.2515 C.3     
  31 H31            0.9444    -0.5315    -0.0101 H       
  32 H32           -1.2439     3.1385     0.0369 H       
  33 H33           -4.5698     0.2108     3.1571 H       
  34 H34           -5.4783     0.5537     1.6617 H       
  35 H35           -6.8911    -0.3100     3.6150 H       
  36 H36           -7.0363    -1.2476     2.1053 H       
  37 H37           -4.7403    -3.9185     3.5749 H       
  38 H38           -5.6488    -3.5756     2.0795 H       
  39 H39           -3.3332    -3.0586     1.6203 H       
  40 H40           -3.1857    -2.1184     3.1280 H       
  41 H41           -6.8606    -5.2366     5.1926 H       
  42 H42           -8.9722    -6.5014     5.2034 H       
  43 H43          -11.1241    -5.3071     5.2285 H       
  44 H44           -9.0438    -1.5739     5.2396 H       
  45 H45            0.5103     3.8379    -0.8722 H       
  46 H46            0.5272     3.8283     0.9076 H       
  47 H47            2.0568     3.9355     0.0036 H       
  48 H48          -12.6163    -4.1228     4.3578 H       
  49 H49          -12.6020    -4.1338     6.1377 H       
  50 H50          -13.4682    -2.8484     5.2626 H       
@<TRIPOS>BOND
   1    1    2 ar
   2    1   21 1
   3    1    6 ar
   4    2    3 ar
   5    2   31 1
   6    3    4 ar
   7    3   19 1
   8    4    5 ar
   9    4   26 1
  10    5    6 ar
  11    5   20 1
  12    6   32 1
  13    7    8 1
  14    7   26 am
  15    7   12 1
  16    8    9 1
  17    8   33 1
  18    8   34 1
  19    9   10 1
  20    9   35 1
  21    9   36 1
  22   10   11 1
  23   10   23 am
  24   11   12 1
  25   11   37 1
  26   11   38 1
  27   12   39 1
  28   12   40 1
  29   13   14 ar
  30   13   23 1
  31   13   18 ar
  32   14   15 ar
  33   14   41 1
  34   15   16 ar
  35   15   42 1
  36   16   17 ar
  37   16   43 1
  38   17   18 ar
  39   17   29 1
  40   18   44 1
  41   21   22 1
  42   22   45 1
  43   22   46 1
  44   22   47 1
  45   23   24 2
  46   23   25 2
  47   26   27 2
  48   26   28 2
  49   29   30 1
  50   30   48 1
  51   30   49 1
  52   30   50 1

#	End of record

