#	Name: ASD01911300
#	Creating user name:	WinNT
#	Creation time:	15. 06. 2019 19:57

#	Modifying user name:	WinNT
#	Modification time:	15. 06. 2019 19:57

#	Program:	/corina/corina34_cracker 3.40 0067  02.08.2006

@<TRIPOS>MOLECULE
ASD01911300
  42   45    0    0    0
SMALL
NO_CHARGES


@<TRIPOS>ATOM
   1 C1             0.0109     1.3759    -0.2279 C.ar    
   2 C2             0.0312    -0.0047    -0.1388 C.ar    
   3 C3            -1.1483    -0.7049     0.0241 C.ar    
   4 C4            -2.3551    -0.0219     0.0985 C.ar    
   5 C5            -2.3726     1.3642     0.0087 C.ar    
   6 C6            -1.1900     2.0595    -0.1484 C.ar    
   7 C7            -1.1255    -2.2086     0.1206 C.3     
   8 N8            -3.5511    -0.7285     0.2630 N.am    
   9 C9            -4.7219    -0.1638    -0.0931 C.2     
  10 C10           -5.9970    -0.8627     0.1884 C.ar    
  11 O11           -4.7313     0.9188    -0.6451 O.2     
  12 C12           -7.2227    -0.2946    -0.1727 C.ar    
  13 C13           -8.3879    -0.9813     0.1085 C.ar    
  14 N14           -8.3541    -2.1549     0.7078 N.ar    
  15 C15           -7.2208    -2.7257     1.0647 C.ar    
  16 C16           -6.0084    -2.1116     0.8172 C.ar    
  17 N17           -1.4247    -2.7867    -1.1918 N.am    
  18 C18           -0.5149    -2.9800    -2.1638 C.2     
  19 C19           -1.1936    -3.5806    -3.3315 C.ar    
  20 C20           -2.5471    -3.7170    -2.9629 C.ar    
  21 C21           -2.6442    -3.1995    -1.5816 C.2     
  22 C22           -0.7773    -3.9887    -4.5886 C.ar    
  23 C23           -1.6961    -4.5286    -5.4750 C.ar    
  24 C24           -3.0235    -4.6623    -5.1135 C.ar    
  25 C25           -3.4543    -4.2585    -3.8595 C.ar    
  26 O26            0.6662    -2.7062    -2.0938 O.2     
  27 O27           -3.6569    -3.1491    -0.9131 O.2     
  28 Cl28           1.4951     2.2528    -0.4327 Cl      
  29 H29            0.9700    -0.5354    -0.1971 H       
  30 H30           -3.3098     1.8977     0.0659 H       
  31 H31           -1.2030     3.1372    -0.2182 H       
  32 H32           -0.1383    -2.5369     0.4457 H       
  33 H33           -1.8736    -2.5378     0.8417 H       
  34 H34           -3.5378    -1.6249     0.6333 H       
  35 H35           -7.2579     0.6667    -0.6636 H       
  36 H36           -9.3395    -0.5507    -0.1661 H       
  37 H37           -7.2402    -3.6886     1.5536 H       
  38 H38           -5.0837    -2.5852     1.1122 H       
  39 H39            0.2585    -3.8863    -4.8766 H       
  40 H40           -1.3726    -4.8466    -6.4552 H       
  41 H41           -3.7299    -5.0844    -5.8130 H       
  42 H42           -4.4928    -4.3650    -3.5825 H       
@<TRIPOS>BOND
   1    1    2 ar
   2    1   28 1
   3    1    6 ar
   4    2    3 ar
   5    2   29 1
   6    3    7 1
   7    3    4 ar
   8    4    5 ar
   9    4    8 1
  10    5    6 ar
  11    5   30 1
  12    6   31 1
  13    7   17 1
  14    7   32 1
  15    7   33 1
  16    8    9 am
  17    8   34 1
  18    9   10 1
  19    9   11 2
  20   10   12 ar
  21   10   16 ar
  22   12   13 ar
  23   12   35 1
  24   13   14 ar
  25   13   36 1
  26   14   15 ar
  27   15   16 ar
  28   15   37 1
  29   16   38 1
  30   17   18 am
  31   17   21 am
  32   18   19 1
  33   18   26 2
  34   19   20 ar
  35   19   22 ar
  36   20   21 1
  37   20   25 ar
  38   21   27 2
  39   22   23 ar
  40   22   39 1
  41   23   24 ar
  42   23   40 1
  43   24   25 ar
  44   24   41 1
  45   25   42 1

#	End of record

