#	Name: ASD02030760
#	Creating user name:	WinNT
#	Creation time:	15. 06. 2019 20:16

#	Modifying user name:	WinNT
#	Modification time:	15. 06. 2019 20:16

#	Program:	/corina/corina34_cracker 3.40 0067  02.08.2006

@<TRIPOS>MOLECULE
ASD02030760
  74   78    0    0    0
SMALL
NO_CHARGES


@<TRIPOS>ATOM
   1 C1            -1.4604     0.8376    -0.3583 C.ar    
   2 C2            -1.2683    -0.5374    -0.4721 C.ar    
   3 C3            -0.0178    -1.0748    -0.4441 C.ar    
   4 C4             1.0978    -0.2330    -0.2973 C.ar    
   5 C5             0.9012     1.1654    -0.1830 C.ar    
   6 C6            -0.4023     1.6833    -0.2162 C.ar    
   7 C7             2.4021    -0.7462    -0.2595 C.ar    
   8 C8             3.4779     0.0881    -0.1131 C.ar    
   9 C9             3.2976     1.4604    -0.0066 C.ar    
  10 C10            2.0235     2.0041    -0.0381 C.ar    
  11 C11            4.8427    -0.5514    -0.0660 C.3     
  12 C12            5.9315     0.4834    -0.3396 C.3     
  13 C13            5.7093     1.6787     0.5942 C.3     
  14 C14            4.4529     2.4178     0.1393 C.3     
  15 N15            1.8524     3.3822     0.0731 N.3     
  16 C16            1.8428     4.0200    -1.2502 C.3     
  17 C17            1.5444     5.5125    -1.0948 C.3     
  18 C18            1.5344     6.1768    -2.4730 C.3     
  19 C19            1.2359     7.6693    -2.3177 C.3     
  20 C20            1.2260     8.3336    -3.6959 C.3     
  21 N21            0.9402     9.7628    -3.5471 N.pl3   
  22 C22            0.8796    10.5755    -4.6639 C.2     
  23 C23            0.6188    11.8800    -4.5282 C.2     
  24 C24            1.1077     9.9914    -6.0343 C.3     
  25 C25            0.3997    12.7164    -5.7228 C.2     
  26 N26            0.2805    14.0299    -5.6294 N.2     
  27 C27            0.0879    14.6882    -6.7504 C.2     
  28 S28            0.0663    13.4869    -7.9846 S.3     
  29 N29            0.3209    12.1869    -6.9205 N.2     
  30 N30           -0.0653    16.0546    -6.9060 N.pl3   
  31 C31           -0.4054    16.5820    -8.1550 C.ar    
  32 C32           -1.3028    15.9085    -8.9741 C.ar    
  33 C33           -1.6366    16.4324   -10.2075 C.ar    
  34 C34           -1.0787    17.6260   -10.6275 C.ar    
  35 C35           -0.1847    18.2988    -9.8148 C.ar    
  36 C36            0.1488    17.7836    -8.5776 C.ar    
  37 C37           -1.4453    18.1946   -11.9741 C.3     
  38 F38           -2.5582    19.0317   -11.8395 F       
  39 F39           -0.3674    18.9295   -12.4792 F       
  40 F40           -1.7509    17.1504   -12.8537 F       
  41 H41           -2.4625     1.2392    -0.3877 H       
  42 H42           -2.1241    -1.1867    -0.5838 H       
  43 H43            0.1162    -2.1427    -0.5340 H       
  44 H44           -0.5659     2.7473    -0.1294 H       
  45 H45            2.5598    -1.8111    -0.3464 H       
  46 H46            5.0013    -0.9875     0.9204 H       
  47 H47            4.8972    -1.3379    -0.8187 H       
  48 H48            6.9109     0.0451    -0.1480 H       
  49 H49            5.8727     0.8123    -1.3771 H       
  50 H50            5.5777     1.3260     1.6171 H       
  51 H51            6.5677     2.3485     0.5438 H       
  52 H52            4.6457     2.8973    -0.8204 H       
  53 H53            4.1975     3.1795     0.8760 H       
  54 H54            1.0120     3.6019     0.5865 H       
  55 H55            2.8168     3.8915    -1.7225 H       
  56 H56            1.0745     3.5584    -1.8704 H       
  57 H57            0.5704     5.6410    -0.6225 H       
  58 H58            2.3127     5.9741    -0.4745 H       
  59 H59            2.5083     6.0483    -2.9453 H       
  60 H60            0.7661     5.7153    -3.0933 H       
  61 H61            0.2620     7.7979    -1.8454 H       
  62 H62            2.0043     8.1309    -1.6974 H       
  63 H63            2.1999     8.2051    -4.1682 H       
  64 H64            0.4576     7.8721    -4.3162 H       
  65 H65            0.7934    10.1388    -2.6651 H       
  66 H66            0.5685    12.3210    -3.5436 H       
  67 H67            0.1478     9.7475    -6.4896 H       
  68 H68            1.6308    10.7176    -6.6564 H       
  69 H69            1.7093     9.0865    -5.9480 H       
  70 H70            0.0634    16.6464    -6.1484 H       
  71 H71           -1.7386    14.9761    -8.6468 H       
  72 H72           -2.3339    15.9091   -10.8450 H       
  73 H73            0.2498    19.2304   -10.1461 H       
  74 H74            0.8470    18.3096    -7.9434 H       
@<TRIPOS>BOND
   1    1    2 ar
   2    1    6 ar
   3    1   41 1
   4    2    3 ar
   5    2   42 1
   6    3    4 ar
   7    3   43 1
   8    4    5 ar
   9    4    7 ar
  10    5    6 ar
  11    5   10 ar
  12    6   44 1
  13    7    8 ar
  14    7   45 1
  15    8    9 ar
  16    8   11 1
  17    9   10 ar
  18    9   14 1
  19   10   15 1
  20   11   12 1
  21   11   46 1
  22   11   47 1
  23   12   13 1
  24   12   48 1
  25   12   49 1
  26   13   14 1
  27   13   50 1
  28   13   51 1
  29   14   52 1
  30   14   53 1
  31   15   16 1
  32   15   54 1
  33   16   17 1
  34   16   55 1
  35   16   56 1
  36   17   18 1
  37   17   57 1
  38   17   58 1
  39   18   19 1
  40   18   59 1
  41   18   60 1
  42   19   20 1
  43   19   61 1
  44   19   62 1
  45   20   21 1
  46   20   63 1
  47   20   64 1
  48   21   22 1
  49   21   65 1
  50   22   23 2
  51   22   24 1
  52   23   25 1
  53   23   66 1
  54   24   67 1
  55   24   68 1
  56   24   69 1
  57   25   26 1
  58   25   29 2
  59   26   27 2
  60   27   30 1
  61   27   28 1
  62   28   29 1
  63   30   31 1
  64   30   70 1
  65   31   32 ar
  66   31   36 ar
  67   32   33 ar
  68   32   71 1
  69   33   34 ar
  70   33   72 1
  71   34   37 1
  72   34   35 ar
  73   35   36 ar
  74   35   73 1
  75   36   74 1
  76   37   38 1
  77   37   39 1
  78   37   40 1

#	End of record

