#	Name: ASD07301109
#	Creating user name:	WinNT
#	Creation time:	15. 06. 2019 21:11

#	Modifying user name:	WinNT
#	Modification time:	15. 06. 2019 21:11

#	Program:	/corina/corina34_cracker 3.40 0067  02.08.2006

@<TRIPOS>MOLECULE
ASD07301109
  41   43    0    0    0
SMALL
NO_CHARGES


@<TRIPOS>ATOM
   1 C1            -0.0178     1.4648     0.0101 C.2     
   2 C2             0.0021    -0.0041     0.0020 C.2     
   3 C3             1.2769    -0.6367    -0.0136 C.2     
   4 C4             2.3784     0.1588    -0.0198 C.2     
   5 N5             2.2583     1.5096    -0.0114 N.pl3   
   6 N6             1.1292     2.1159     0.0026 N.2     
   7 C7            -1.2972     2.1981     0.0202 C.2     
   8 O8            -2.3475     1.5873     0.0218 O.2     
   9 O9            -1.3014     3.5457     0.0275 O.3     
  10 O10           -1.0317    -0.6549     0.0088 O.2     
  11 O11            1.3888    -1.9916    -0.0215 O.3     
  12 C12            2.7111    -2.5333    -0.0370 C.3     
  13 C13            3.4258     2.2801    -0.0184 C.ar    
  14 C14            3.6355     3.2354     0.9723 C.ar    
  15 C15            4.7902     3.9963     0.9639 C.ar    
  16 C16            5.7402     3.8058    -0.0345 C.ar    
  17 C17            5.5287     2.8521    -1.0218 C.ar    
  18 C18            4.3788     2.0883    -1.0106 C.ar    
  19 N19            6.9078     4.5749    -0.0442 N.3     
  20 C20            8.1011     3.7224     0.0587 C.3     
  21 C21            9.3549     4.5977    -0.0157 C.3     
  22 O22            9.3036     5.5842     1.0185 O.3     
  23 C23            8.1544     6.4326     0.9482 C.3     
  24 C24            6.8883     5.5759     1.0324 C.3     
  25 F25            4.9954     4.9242     1.9241 F       
  26 F26            2.7116     3.4192     1.9407 F       
  27 H27            3.3608    -0.2898    -0.0312 H       
  28 H28           -2.1643     3.9820     0.0340 H       
  29 H29            3.2334    -2.1911    -0.9304 H       
  30 H30            3.2507    -2.2001     0.8494 H       
  31 H31            2.6577    -3.6220    -0.0420 H       
  32 H32            6.2665     2.7051    -1.7967 H       
  33 H33            4.2179     1.3440    -1.7765 H       
  34 H34            8.0859     3.1882     1.0087 H       
  35 H35            8.1083     3.0057    -0.7625 H       
  36 H36           10.2408     3.9767     0.1174 H       
  37 H37            9.3977     5.0905    -0.9870 H       
  38 H38            8.1719     7.1386     1.7785 H       
  39 H39            8.1622     6.9787     0.0050 H       
  40 H40            6.0103     6.2122     0.9219 H       
  41 H41            6.8538     5.0713     1.9979 H       
@<TRIPOS>BOND
   1    1    2 1
   2    1    6 2
   3    1    7 1
   4    2    3 1
   5    2   10 2
   6    3    4 2
   7    3   11 1
   8    4    5 1
   9    4   27 1
  10    5    6 1
  11    5   13 1
  12    7    8 2
  13    7    9 1
  14    9   28 1
  15   11   12 1
  16   12   29 1
  17   12   30 1
  18   12   31 1
  19   13   14 ar
  20   13   18 ar
  21   14   15 ar
  22   14   26 1
  23   15   16 ar
  24   15   25 1
  25   16   17 ar
  26   16   19 1
  27   17   18 ar
  28   17   32 1
  29   18   33 1
  30   19   20 1
  31   19   24 1
  32   20   21 1
  33   20   34 1
  34   20   35 1
  35   21   22 1
  36   21   36 1
  37   21   37 1
  38   22   23 1
  39   23   24 1
  40   23   38 1
  41   23   39 1
  42   24   40 1
  43   24   41 1

#	End of record

