#	Name: ASD01816541
#	Creating user name:	WinNT
#	Creation time:	15. 06. 2019 19:35

#	Modifying user name:	WinNT
#	Modification time:	15. 06. 2019 19:35

#	Program:	/corina/corina34_cracker 3.40 0067  02.08.2006

@<TRIPOS>MOLECULE
ASD01816541
  56   61    0    0    0
SMALL
NO_CHARGES


@<TRIPOS>ATOM
   1 C1            -0.0167     1.3813     0.0096 C.ar    
   2 C2             0.0021    -0.0041     0.0020 C.ar    
   3 C3             1.1984    -0.6909    -0.0127 C.ar    
   4 C4             2.4015     0.0060    -0.0204 C.ar    
   5 C5             2.3790     1.4106    -0.0132 C.ar    
   6 C6             1.1663     2.0916     0.0022 C.ar    
   7 N7             3.6053    -0.6771    -0.0347 N.pl3   
   8 C8             4.7970    -0.0585    -0.0423 C.2     
   9 C9             4.9000     1.3103    -0.0364 C.2     
  10 C10            3.6670     2.1302    -0.0217 C.2     
  11 C11            5.9971     2.2730    -0.0415 C.2     
  12 N12            5.4245     3.4961    -0.0307 N.am    
  13 N13            4.0322     3.3799    -0.0190 N.2     
  14 C14            6.1241     4.7045    -0.0315 C.ar    
  15 O15            7.1913     2.0231    -0.0525 O.2     
  16 C16            3.5779    -2.1419    -0.0413 C.3     
  17 C17            3.5554    -2.6375    -1.4643 C.ar    
  18 C18            4.7432    -2.8867    -2.1270 C.ar    
  19 C19            4.7259    -3.3406    -3.4313 C.ar    
  20 C20            3.5142    -3.5469    -4.0770 C.ar    
  21 C21            2.3233    -3.2962    -3.4089 C.ar    
  22 C22            2.3470    -2.8474    -2.1029 C.ar    
  23 N23            3.4934    -4.0070    -5.4010 N.pl3   
  24 C24            2.3885    -4.2482    -6.1424 C.2     
  25 C25            2.7951    -4.6776    -7.3595 C.2     
  26 C26            4.1941    -4.7000    -7.3633 C.2     
  27 N27            4.6135    -4.2926    -6.1923 N.2     
  28 C28            6.4715     5.3289    -1.2287 C.ar    
  29 C29            7.1628     6.5220    -1.1865 C.ar    
  30 N30            7.4948     7.0710    -0.0333 N.ar    
  31 C31            7.1843     6.5112     1.1207 C.ar    
  32 C32            6.4883     5.3209     1.1647 C.ar    
  33 C33            6.0975     4.7089    -2.5503 C.3     
  34 C34            6.1377     4.6893     2.4873 C.3     
  35 H35           -0.9602     1.9068     0.0170 H       
  36 H36           -0.9289    -0.5516     0.0080 H       
  37 H37            1.2004    -1.7709    -0.0178 H       
  38 H38            1.1506     3.1715     0.0077 H       
  39 H39            5.6983    -0.6535    -0.0530 H       
  40 H40            4.4656    -2.5241     0.4626 H       
  41 H41            2.6860    -2.4909     0.4791 H       
  42 H42            5.6855    -2.7260    -1.6242 H       
  43 H43            5.6539    -3.5344    -3.9486 H       
  44 H44            1.3792    -3.4554    -3.9087 H       
  45 H45            1.4209    -2.6522    -1.5826 H       
  46 H46            1.3653    -4.1215    -5.8207 H       
  47 H47            2.1531    -4.9543    -8.1828 H       
  48 H48            4.8202    -4.9977    -8.1914 H       
  49 H49            7.4361     7.0127    -2.1089 H       
  50 H50            7.4748     6.9933     2.0425 H       
  51 H51            5.1179     5.0740    -2.8587 H       
  52 H52            6.8393     4.9799    -3.3016 H       
  53 H53            6.0649     3.6243    -2.4466 H       
  54 H54            5.1663     5.0560     2.8189 H       
  55 H55            6.0975     3.6060     2.3733 H       
  56 H56            6.8957     4.9490     3.2263 H       
@<TRIPOS>BOND
   1    1    2 ar
   2    1    6 ar
   3    1   35 1
   4    2    3 ar
   5    2   36 1
   6    3    4 ar
   7    3   37 1
   8    4    5 ar
   9    4    7 1
  10    5    6 ar
  11    5   10 1
  12    6   38 1
  13    7    8 1
  14    7   16 1
  15    8    9 2
  16    8   39 1
  17    9   10 1
  18    9   11 1
  19   10   13 2
  20   11   12 am
  21   11   15 2
  22   12   13 1
  23   12   14 1
  24   14   28 ar
  25   14   32 ar
  26   16   17 1
  27   16   40 1
  28   16   41 1
  29   17   18 ar
  30   17   22 ar
  31   18   19 ar
  32   18   42 1
  33   19   20 ar
  34   19   43 1
  35   20   21 ar
  36   20   23 1
  37   21   22 ar
  38   21   44 1
  39   22   45 1
  40   23   24 1
  41   23   27 1
  42   24   25 2
  43   24   46 1
  44   25   26 1
  45   25   47 1
  46   26   27 2
  47   26   48 1
  48   28   29 ar
  49   28   33 1
  50   29   30 ar
  51   29   49 1
  52   30   31 ar
  53   31   32 ar
  54   31   50 1
  55   32   34 1
  56   33   51 1
  57   33   52 1
  58   33   53 1
  59   34   54 1
  60   34   55 1
  61   34   56 1

#	End of record

