#	Name: ASD01813879
#	Creating user name:	WinNT
#	Creation time:	15. 06. 2019 19:31

#	Modifying user name:	WinNT
#	Modification time:	15. 06. 2019 19:31

#	Program:	/corina/corina34_cracker 3.40 0067  02.08.2006

@<TRIPOS>MOLECULE
ASD01813879
  52   55    0    0    0
SMALL
NO_CHARGES


@<TRIPOS>ATOM
   1 C1            -0.6629     0.3584     0.3305 C.2     
   2 C2            -0.3703    -1.0121     0.3306 C.2     
   3 C3             0.9276    -1.4215     0.2362 C.2     
   4 C4             1.9492    -0.4620     0.1406 C.2     
   5 N5             1.6348     0.8699     0.1433 N.am    
   6 C6             0.3340     1.2673     0.2377 C.2     
   7 C7             3.2838    -0.8802     0.0437 C.2     
   8 C8             4.2838     0.0438    -0.0492 C.2     
   9 C9             3.9568     1.4125    -0.0467 C.2     
  10 C10            2.6053     1.8014     0.0525 C.2     
  11 O11            2.3128     2.9852     0.0550 O.2     
  12 C12            5.0113     2.4241    -0.1448 C.2     
  13 O13            4.6912     3.7345    -0.1418 O.3     
  14 O14            6.1758     2.0826    -0.2290 O.2     
  15 C15            3.6143    -2.3505     0.0426 C.3     
  16 N16            3.7319    -2.8249    -1.3428 N.3     
  17 C17            4.2825    -4.1867    -1.3881 C.3     
  18 C18            4.3146    -4.6730    -2.8390 C.3     
  19 N19            5.1290    -3.7517    -3.6438 N.3     
  20 C20            4.5784    -2.3899    -3.5984 C.3     
  21 C21            4.5462    -1.9036    -2.1476 C.3     
  22 C22            5.2403    -4.2005    -4.9546 C.ar    
  23 C23            6.4336    -4.0296    -5.6524 C.ar    
  24 N24            6.5351    -4.4576    -6.8964 N.ar    
  25 C25            5.5060    -5.0480    -7.4804 C.ar    
  26 C26            4.3201    -5.2190    -6.7915 C.ar    
  27 N27            4.2119    -4.7979    -5.5428 N.ar    
  28 C28            3.1504    -5.8917    -7.4627 C.3     
  29 C29            7.6068    -3.3565    -4.9878 C.3     
  30 H30           -1.6885     0.6898     0.4004 H       
  31 H31           -1.1661    -1.7384     0.4050 H       
  32 H32            1.1677    -2.4745     0.2354 H       
  33 H33            0.0969     2.3209     0.2389 H       
  34 H34            5.3141    -0.2717    -0.1235 H       
  35 H35            5.4214     4.3649    -0.2086 H       
  36 H36            4.5584    -2.5111     0.5630 H       
  37 H37            2.8218    -2.9014     0.5492 H       
  38 H38            5.2945    -4.1834    -0.9832 H       
  39 H39            3.6553    -4.8524    -0.7953 H       
  40 H40            4.7495    -5.6717    -2.8782 H       
  41 H41            3.2997    -4.7021    -3.2353 H       
  42 H42            5.2055    -1.7241    -4.1913 H       
  43 H43            3.5664    -2.3931    -4.0034 H       
  44 H44            4.1113    -0.9049    -2.1083 H       
  45 H45            5.5612    -1.8744    -1.7512 H       
  46 H46            5.5923    -5.3972    -8.4988 H       
  47 H47            3.1977    -6.9659    -7.2842 H       
  48 H48            2.2205    -5.4960    -7.0543 H       
  49 H49            3.1871    -5.6996    -8.5350 H       
  50 H50            8.1674    -4.0910    -4.4097 H       
  51 H51            8.2549    -2.9214    -5.7486 H       
  52 H52            7.2465    -2.5702    -4.3245 H       
@<TRIPOS>BOND
   1    1    2 1
   2    1    6 2
   3    1   30 1
   4    2    3 2
   5    2   31 1
   6    3    4 1
   7    3   32 1
   8    4    5 1
   9    4    7 2
  10    5    6 1
  11    5   10 am
  12    6   33 1
  13    7    8 1
  14    7   15 1
  15    8    9 2
  16    8   34 1
  17    9   10 1
  18    9   12 1
  19   10   11 2
  20   12   13 1
  21   12   14 2
  22   13   35 1
  23   15   16 1
  24   15   36 1
  25   15   37 1
  26   16   17 1
  27   16   21 1
  28   17   18 1
  29   17   38 1
  30   17   39 1
  31   18   19 1
  32   18   40 1
  33   18   41 1
  34   19   20 1
  35   19   22 1
  36   20   21 1
  37   20   42 1
  38   20   43 1
  39   21   44 1
  40   21   45 1
  41   22   23 ar
  42   22   27 ar
  43   23   24 ar
  44   23   29 1
  45   24   25 ar
  46   25   26 ar
  47   25   46 1
  48   26   27 ar
  49   26   28 1
  50   28   47 1
  51   28   48 1
  52   28   49 1
  53   29   50 1
  54   29   51 1
  55   29   52 1

#	End of record

