#	Name: ASD00960203
#	Creating user name:	WinNT
#	Creation time:	15. 06. 2019 18:53

#	Modifying user name:	WinNT
#	Modification time:	15. 06. 2019 18:53

#	Program:	/corina/corina34_cracker 3.40 0067  02.08.2006

@<TRIPOS>MOLECULE
ASD00960203
  38   41    0    0    0
SMALL
NO_CHARGES


@<TRIPOS>ATOM
   1 C1            -0.0170     1.4005     0.0097 C.2     
   2 C2             0.0021    -0.0041     0.0020 C.2     
   3 N3             1.2769     1.8413    -0.0002 N.pl3   
   4 C4             2.1136     0.7536    -0.0141 C.2     
   5 C5             1.3416    -0.3979    -0.0129 C.2     
   6 N6             1.8457     3.1230     0.0012 N.2     
   7 C7             3.1450     3.2630    -0.0104 C.2     
   8 N8             3.9686     2.2192    -0.0239 N.2     
   9 C9             3.5133     0.9788    -0.0258 C.2     
  10 N10            4.3911    -0.0864    -0.0395 N.pl3   
  11 C11           -1.1753    -0.8977     0.0089 C.2     
  12 N12           -1.3351    -2.0580    -0.6963 N.pl3   
  13 N13           -2.4963    -2.5372    -0.4163 N.2     
  14 N14           -3.1091    -1.7773     0.4199 N.2     
  15 C15           -2.3289    -0.7386     0.7267 C.2     
  16 C16           -1.1727     2.2160     0.0199 C.2     
  17 O17           -2.2777     1.7056     0.0226 O.2     
  18 O18           -1.0502     3.5604     0.0266 O.3     
  19 C19           -2.2593     4.3220     0.0367 C.3     
  20 C20           -1.9271     5.7919     0.0431 C.ar    
  21 C21           -1.7806     6.4726    -1.1511 C.ar    
  22 C22           -1.4758     7.8209    -1.1453 C.ar    
  23 C23           -1.3179     8.4886     0.0547 C.ar    
  24 C24           -1.4652     7.8082     1.2489 C.ar    
  25 C25           -1.7743     6.4608     1.2431 C.ar    
  26 H26            1.7089    -1.4134    -0.0215 H       
  27 H27            3.5633     4.2587    -0.0095 H       
  28 H28            5.3478     0.0736    -0.0478 H       
  29 H29            4.0512    -0.9949    -0.0408 H       
  30 H30           -0.6870    -2.4511    -1.3016 H       
  31 H31           -2.5645     0.0706     1.4020 H       
  32 H32           -2.8450     4.0857    -0.8516 H       
  33 H33           -2.8362     4.0761     0.9283 H       
  34 H34           -1.9040     5.9509    -2.0887 H       
  35 H35           -1.3607     8.3525    -2.0783 H       
  36 H36           -1.0791     9.5419     0.0592 H       
  37 H37           -1.3415     8.3298     2.1865 H       
  38 H38           -1.8931     5.9300     2.1762 H       
@<TRIPOS>BOND
   1    1    2 2
   2    1    3 1
   3    1   16 1
   4    2   11 1
   5    2    5 1
   6    3    4 1
   7    3    6 1
   8    4    5 2
   9    4    9 1
  10    5   26 1
  11    6    7 2
  12    7    8 1
  13    7   27 1
  14    8    9 2
  15    9   10 1
  16   10   28 1
  17   10   29 1
  18   11   12 1
  19   11   15 2
  20   12   13 1
  21   12   30 1
  22   13   14 2
  23   14   15 1
  24   15   31 1
  25   16   17 2
  26   16   18 1
  27   18   19 1
  28   19   20 1
  29   19   32 1
  30   19   33 1
  31   20   21 ar
  32   20   25 ar
  33   21   22 ar
  34   21   34 1
  35   22   23 ar
  36   22   35 1
  37   23   24 ar
  38   23   36 1
  39   24   25 ar
  40   24   37 1
  41   25   38 1

#	End of record

