#	Name: ASD03430647
#	Creating user name:	WinNT
#	Creation time:	15. 06. 2019 20:41

#	Modifying user name:	WinNT
#	Modification time:	15. 06. 2019 20:41

#	Program:	/corina/corina34_cracker 3.40 0067  02.08.2006

@<TRIPOS>MOLECULE
ASD03430647
  66   71    0    0    0
SMALL
NO_CHARGES


@<TRIPOS>ATOM
   1 N1            -0.0159     1.4933     0.4910 N.am    
   2 C2             0.0407     0.2263     0.9346 C.2     
   3 C3             1.4800    -0.0483     1.3153 C.3     
   4 C4             2.1935     1.2499     1.0148 C.ar    
   5 C5             3.5110     1.6482     1.1413 C.ar    
   6 C6             3.8824     2.9347     0.7760 C.ar    
   7 C7             2.9271     3.8129     0.2859 C.ar    
   8 C8             1.6078     3.4118     0.1605 C.ar    
   9 C9             1.2297     2.1214     0.5252 C.ar    
  10 O10           -0.8868    -0.5511     1.0151 O.2     
  11 O11            3.2878     5.0732    -0.0725 O.3     
  12 C12            4.6647     5.4228     0.0824 C.3     
  13 O13            4.4409     0.7819     1.6227 O.3     
  14 C14            5.7828     1.2621     1.7261 C.3     
  15 O15            1.8699    -1.2738     6.8084 O.3     
  16 C16            2.0664    -2.6473     7.1614 C.3     
  17 C17            3.1683    -3.2218     6.2608 C.3     
  18 O18            2.7422    -3.1015     4.8993 O.3     
  19 C19            2.2157    -1.9019     4.5264 C.ar    
  20 C20            1.7783    -0.9902     5.4803 C.ar    
  21 C21            2.1180    -1.5924     3.1785 C.ar    
  22 C22            1.5842    -0.3809     2.7815 C.ar    
  23 C23            1.1448     0.5289     3.7311 C.ar    
  24 C24            1.2419     0.2240     5.0802 C.ar    
  25 O25            0.6190     1.7201     3.3393 O.3     
  26 O26            2.0145    -1.1090     0.5208 O.3     
  27 C27           -1.2434     2.1394     0.0198 C.3     
  28 C28           -0.9983     2.7577    -1.3325 C.ar    
  29 C29           -1.5142     4.0064    -1.6252 C.ar    
  30 C30           -1.2894     4.5736    -2.8656 C.ar    
  31 C31           -0.5484     3.8924    -3.8131 C.ar    
  32 C32           -0.0318     2.6441    -3.5201 C.ar    
  33 C33           -0.2529     2.0788    -2.2781 C.ar    
  34 C34           -2.3415     1.1129    -0.0888 C.ar    
  35 C35           -3.4805     1.2347     0.6850 C.ar    
  36 C36           -4.4877     0.2932     0.5854 C.ar    
  37 C37           -4.3560    -0.7700    -0.2883 C.ar    
  38 C38           -3.2174    -0.8913    -1.0628 C.ar    
  39 C39           -2.2122     0.0526    -0.9663 C.ar    
  40 H40            4.9105     3.2506     0.8734 H       
  41 H41            0.8695     4.1015    -0.2213 H       
  42 H42            4.9491     5.3235     1.1300 H       
  43 H43            5.2789     4.7583    -0.5254 H       
  44 H44            4.8163     6.4531    -0.2391 H       
  45 H45            6.4215     0.4731     2.1231 H       
  46 H46            6.1402     1.5569     0.7394 H       
  47 H47            5.8103     2.1227     2.3945 H       
  48 H48            2.3706    -2.7186     8.2056 H       
  49 H49            1.1406    -3.2021     7.0089 H       
  50 H50            4.0921    -2.6623     6.4077 H       
  51 H51            3.3313    -4.2719     6.5036 H       
  52 H52            2.4594    -2.2997     2.4371 H       
  53 H53            0.8994     0.9327     5.8197 H       
  54 H54           -0.3380     1.7014     3.2016 H       
  55 H55            1.5540    -1.9523     0.6294 H       
  56 H56           -1.5398     2.9152     0.7257 H       
  57 H57           -2.0931     4.5386    -0.8850 H       
  58 H58           -1.6930     5.5488    -3.0946 H       
  59 H59           -0.3734     4.3352    -4.7825 H       
  60 H60            0.5468     2.1117    -4.2605 H       
  61 H61            0.1538     1.1051    -2.0479 H       
  62 H62           -3.5833     2.0653     1.3675 H       
  63 H63           -5.3772     0.3879     1.1904 H       
  64 H64           -5.1426    -1.5060    -0.3656 H       
  65 H65           -3.1145    -1.7221    -1.7451 H       
  66 H66           -1.3242    -0.0401    -1.5741 H       
@<TRIPOS>BOND
   1    1    2 am
   2    1    9 1
   3    1   27 1
   4    2    3 1
   5    2   10 2
   6    3    4 1
   7    3   22 1
   8    3   26 1
   9    4    5 ar
  10    4    9 ar
  11    5    6 ar
  12    5   13 1
  13    6    7 ar
  14    6   40 1
  15    7    8 ar
  16    7   11 1
  17    8    9 ar
  18    8   41 1
  19   11   12 1
  20   12   42 1
  21   12   43 1
  22   12   44 1
  23   13   14 1
  24   14   45 1
  25   14   46 1
  26   14   47 1
  27   15   16 1
  28   15   20 1
  29   16   17 1
  30   16   48 1
  31   16   49 1
  32   17   18 1
  33   17   50 1
  34   17   51 1
  35   18   19 1
  36   19   20 ar
  37   19   21 ar
  38   20   24 ar
  39   21   22 ar
  40   21   52 1
  41   22   23 ar
  42   23   24 ar
  43   23   25 1
  44   24   53 1
  45   25   54 1
  46   26   55 1
  47   27   28 1
  48   27   34 1
  49   27   56 1
  50   28   29 ar
  51   28   33 ar
  52   29   30 ar
  53   29   57 1
  54   30   31 ar
  55   30   58 1
  56   31   32 ar
  57   31   59 1
  58   32   33 ar
  59   32   60 1
  60   33   61 1
  61   34   35 ar
  62   34   39 ar
  63   35   36 ar
  64   35   62 1
  65   36   37 ar
  66   36   63 1
  67   37   38 ar
  68   37   64 1
  69   38   39 ar
  70   38   65 1
  71   39   66 1

#	End of record

