#	Name: ASD08170033
#	Creating user name:	WinNT
#	Creation time:	15. 06. 2019 21:17

#	Modifying user name:	WinNT
#	Modification time:	15. 06. 2019 21:17

#	Program:	/corina/corina34_cracker 3.40 0067  02.08.2006

@<TRIPOS>MOLECULE
ASD08170033
  61   63    0    0    0
SMALL
NO_CHARGES


@<TRIPOS>ATOM
   1 C1            -0.0184     1.5028     0.0103 C.3     
   2 C2             0.0021    -0.0041     0.0020 C.2     
   3 C3            -1.1370    -2.0844     0.0017 C.2     
   4 N4            -0.0714    -2.8270    -0.0120 N.2     
   5 N5            -0.2299    -4.0795    -0.0121 N.2     
   6 C6            -1.4517    -4.5090     0.0016 C.2     
   7 S7            -2.5151    -3.1018     0.0163 S.3     
   8 C8            -1.8867    -5.9519     0.0039 C.3     
   9 C9            -2.0174    -6.4428     1.4471 C.3     
  10 C10           -2.4590    -7.9077     1.4495 C.3     
  11 C11           -2.5897    -8.3986     2.8928 C.3     
  12 C12           -3.0246    -9.8415     2.8951 C.2     
  13 O13            1.0605    -0.5961    -0.0113 O.2     
  14 N14           -1.1558    -0.6938     0.0094 N.am    
  15 C15            1.3954     2.0244    -0.0004 C.ar    
  16 C16            2.0324     2.2701    -1.2024 C.ar    
  17 C17            3.3293     2.7485    -1.2122 C.ar    
  18 C18            3.9890     2.9817    -0.0200 C.ar    
  19 C19            3.3517     2.7369     1.1820 C.ar    
  20 C20            2.0533     2.2626     1.1918 C.ar    
  21 O21           -3.2117   -10.4201     1.8458 O.2     
  22 N22           -3.2058   -10.4888     4.0633 N.am    
  23 C23           -2.9798    -9.7897     5.3308 C.3     
  24 C24           -3.6286   -11.8914     4.0656 C.3     
  25 C25           -2.3948   -12.7961     4.0498 C.3     
  26 N26           -2.8188   -14.2025     4.0521 N.3     
  27 C27           -1.6763   -15.0993     3.7984 C.3     
  28 C28           -1.5935   -16.0816     4.9857 C.3     
  29 C29           -3.0328   -16.0529     5.5640 C.3     
  30 C30           -3.4271   -14.5704     5.3485 C.3     
  31 H31           -0.5455     1.8639    -0.8728 H       
  32 H32           -0.5286     1.8543     0.9071 H       
  33 H33           -2.8495    -6.0420    -0.4991 H       
  34 H34           -1.1454    -6.5557    -0.5195 H       
  35 H35           -1.0546    -6.3528     1.9501 H       
  36 H36           -2.7586    -5.8390     1.9706 H       
  37 H37           -3.4218    -7.9977     0.9466 H       
  38 H38           -1.7177    -8.5115     0.9261 H       
  39 H39           -1.6268    -8.3085     3.3957 H       
  40 H40           -3.3309    -7.7948     3.4162 H       
  41 H41           -2.0023    -0.2203     0.0200 H       
  42 H42            1.5170     2.0879    -2.1338 H       
  43 H43            3.8272     2.9397    -2.1513 H       
  44 H44            5.0025     3.3548    -0.0277 H       
  45 H45            3.8673     2.9187     2.1134 H       
  46 H46            1.5554     2.0713     2.1309 H       
  47 H47           -3.9076    -9.3198     5.6570 H       
  48 H48           -2.6492   -10.5034     6.0854 H       
  49 H49           -2.2144    -9.0259     5.1931 H       
  50 H50           -4.2152   -12.0926     4.9620 H       
  51 H51           -4.2356   -12.0894     3.1822 H       
  52 H52           -1.8082   -12.5949     3.1534 H       
  53 H53           -1.7878   -12.5981     4.9333 H       
  54 H54           -1.8361   -15.6504     2.8716 H       
  55 H55           -0.7563   -14.5183     3.7329 H       
  56 H56           -1.3369   -17.0830     4.6402 H       
  57 H57           -0.8738   -15.7318     5.7258 H       
  58 H58           -3.6916   -16.7174     5.0049 H       
  59 H59           -3.0329   -16.3068     6.6240 H       
  60 H60           -3.0217   -13.9499     6.1476 H       
  61 H61           -4.5114   -14.4691     5.3012 H       
@<TRIPOS>BOND
   1    1    2 1
   2    1   15 1
   3    1   31 1
   4    1   32 1
   5    2   13 2
   6    2   14 am
   7    3    4 2
   8    3    7 1
   9    3   14 1
  10    4    5 1
  11    5    6 2
  12    6    7 1
  13    6    8 1
  14    8    9 1
  15    8   33 1
  16    8   34 1
  17    9   10 1
  18    9   35 1
  19    9   36 1
  20   10   11 1
  21   10   37 1
  22   10   38 1
  23   11   12 1
  24   11   39 1
  25   11   40 1
  26   12   21 2
  27   12   22 am
  28   14   41 1
  29   15   16 ar
  30   15   20 ar
  31   16   17 ar
  32   16   42 1
  33   17   18 ar
  34   17   43 1
  35   18   19 ar
  36   18   44 1
  37   19   20 ar
  38   19   45 1
  39   20   46 1
  40   22   23 1
  41   22   24 1
  42   23   47 1
  43   23   48 1
  44   23   49 1
  45   24   25 1
  46   24   50 1
  47   24   51 1
  48   25   26 1
  49   25   52 1
  50   25   53 1
  51   26   27 1
  52   26   30 1
  53   27   28 1
  54   27   54 1
  55   27   55 1
  56   28   29 1
  57   28   56 1
  58   28   57 1
  59   29   30 1
  60   29   58 1
  61   29   59 1
  62   30   60 1
  63   30   61 1

#	End of record

