#	Name: ASD01810020
#	Creating user name:	WinNT
#	Creation time:	15. 06. 2019 19:23

#	Modifying user name:	WinNT
#	Modification time:	15. 06. 2019 19:23

#	Program:	/corina/corina34_cracker 3.40 0067  02.08.2006

@<TRIPOS>MOLECULE
ASD01810020
  38   42    0    0    0
SMALL
NO_CHARGES


@<TRIPOS>ATOM
   1 N1            -0.0163     1.3478     0.0095 N.am    
   2 C2             0.0021    -0.0041     0.0020 C.2     
   3 C3            -1.2674    -0.7372    -0.3574 C.3     
   4 C4            -2.5159    -0.1240     0.2722 C.3     
   5 C5            -2.5121     1.3729     0.1207 C.ar    
   6 C6            -1.2657     1.9807     0.0316 C.ar    
   7 C7            -3.6299     2.1615     0.0676 C.ar    
   8 C8            -3.5026     3.5489    -0.0490 C.ar    
   9 C9            -2.2634     4.1481    -0.0992 C.ar    
  10 C10           -1.1106     3.3583    -0.0514 C.ar    
  11 C11            0.9565     2.3084     0.0053 C.ar    
  12 C12            0.3366     3.5833    -0.0413 C.ar    
  13 C13            1.0892     4.7571    -0.0667 C.ar    
  14 C14            2.4676     4.6263    -0.0384 C.ar    
  15 C15            3.0792     3.3874     0.0126 C.ar    
  16 C16            2.3504     2.2055     0.0385 C.ar    
  17 C17           -4.7724     4.3585    -0.1233 C.3     
  18 N18           -4.5075     5.7655     0.1889 N.3     
  19 C19           -3.4192     6.2789    -0.6582 C.3     
  20 C20           -2.1077     5.6433    -0.1972 C.3     
  21 O21            1.0140    -0.6128     0.2770 O.2     
  22 O22            2.9683     0.9955     0.0890 O.3     
  23 H23           -1.3818    -0.7286    -1.4413 H       
  24 H24           -1.1801    -1.7718    -0.0254 H       
  25 H25           -3.4009    -0.5315    -0.2164 H       
  26 H26           -2.5440    -0.3769     1.3321 H       
  27 H27           -4.6105     1.7115     0.1155 H       
  28 H28            0.6169     5.7275    -0.1070 H       
  29 H29            3.0807     5.5151    -0.0571 H       
  30 H30            4.1578     3.3373     0.0351 H       
  31 H31           -5.1865     4.2855    -1.1290 H       
  32 H32           -5.4937     3.9616     0.5910 H       
  33 H33           -5.3420     6.3228     0.0827 H       
  34 H34           -3.6087     6.0156    -1.6988 H       
  35 H35           -3.3567     7.3626    -0.5588 H       
  36 H36           -1.8360     6.0431     0.7797 H       
  37 H37           -1.3206     5.8786    -0.9136 H       
  38 H38            3.1315     0.6744     0.9864 H       
@<TRIPOS>BOND
   1    1    2 am
   2    1   11 1
   3    1    6 1
   4    2    3 1
   5    2   21 2
   6    3    4 1
   7    3   23 1
   8    3   24 1
   9    4    5 1
  10    4   25 1
  11    4   26 1
  12    5    6 ar
  13    5    7 ar
  14    6   10 ar
  15    7    8 ar
  16    7   27 1
  17    8    9 ar
  18    8   17 1
  19    9   10 ar
  20    9   20 1
  21   10   12 1
  22   11   12 ar
  23   11   16 ar
  24   12   13 ar
  25   13   14 ar
  26   13   28 1
  27   14   15 ar
  28   14   29 1
  29   15   16 ar
  30   15   30 1
  31   16   22 1
  32   17   18 1
  33   17   31 1
  34   17   32 1
  35   18   19 1
  36   18   33 1
  37   19   20 1
  38   19   34 1
  39   19   35 1
  40   20   36 1
  41   20   37 1
  42   22   38 1

#	End of record

