#	Name: ASD04570004
#	Creating user name:	WinNT
#	Creation time:	15. 06. 2019 20:49

#	Modifying user name:	WinNT
#	Modification time:	15. 06. 2019 20:49

#	Program:	/corina/corina34_cracker 3.40 0067  02.08.2006

@<TRIPOS>MOLECULE
ASD04570004
 290  294    0    0    0
SMALL
NO_CHARGES


@<TRIPOS>ATOM
   1 C1            -1.8998     3.4305     0.7631 C.3     
   2 C2            -0.4168     3.3072     1.1186 C.3     
   3 C3             0.2597     4.6391     0.9203 C.2     
   4 N4            -0.2828     2.8951     2.5181 N.am    
   5 O5             0.8006     5.1899     1.8557 O.2     
   6 N6            -4.6750     0.8565     0.5663 N.pl3   
   7 C7            -6.0140     0.7182     0.2870 C.2     
   8 N8            -6.5764    -0.4556     0.3561 N.2     
   9 N9            -6.7599     1.8181    -0.0653 N.pl3   
  10 C10           -2.5599     2.0526     0.8442 C.3     
  11 C11           -4.0429     2.1758     0.4886 C.3     
  12 C12            2.4128     6.2937    -0.7509 C.3     
  13 C13            0.9214     6.5131    -0.4896 C.3     
  14 C14            0.3034     7.2197    -1.6685 C.2     
  15 N15            0.2637     5.2183    -0.2967 N.am    
  16 O16           -0.3032     6.5857    -2.5057 O.2     
  17 S17            3.1923     5.6052     0.7354 S.3     
  18 C18            1.0441     9.4554    -0.8077 C.3     
  19 C19            0.9804    10.8840    -1.3880 C.3     
  20 C20           -0.0403     9.3587    -2.9384 C.3     
  21 C21            0.1677     8.6039    -4.2261 C.2     
  22 N22            0.4249     8.5563    -1.7925 N.am    
  23 O23            1.0168     7.7405    -4.2925 O.2     
  24 C24            0.8390    10.6338    -2.9127 C.3     
  25 C25           -1.1895     6.8523    -6.5187 C.3     
  26 C26           -0.3875     8.1548    -6.5557 C.3     
  27 C27           -0.8537     8.9990    -7.7137 C.2     
  28 N28           -0.5898     8.8885    -5.3039 N.am    
  29 O29           -1.3100    10.1047    -7.5131 O.2     
  30 S30           -0.6283     5.8361    -5.1248 S.3     
  31 C31           -0.0906    10.2880   -10.5284 C.3     
  32 C32           -1.2168     9.3461   -10.0980 C.3     
  33 C33           -1.5928     8.4525   -11.2518 C.2     
  34 N34           -0.7636     8.5254    -8.9723 N.am    
  35 O35           -1.4921     7.2487   -11.1444 O.2     
  36 N36            1.6162    13.1668    -8.7494 N.pl3   
  37 C37            2.5975    14.1166    -8.9081 C.2     
  38 N38            3.2751    14.1742   -10.0200 N.2     
  39 N39            2.8640    15.0057    -7.8939 N.pl3   
  40 C40            0.2060    11.2775    -9.3997 C.3     
  41 C41            1.3322    12.2194    -9.8301 C.3     
  42 C42           -3.8517     7.6502   -13.3542 C.3     
  43 C43           -2.4065     8.1225   -13.5248 C.3     
  44 C44           -2.2774     8.8885   -14.8161 C.2     
  45 N45           -2.0410     8.9911   -12.4031 N.am    
  46 O46           -1.9157    10.0460   -14.8011 O.2     
  47 C47           -3.9549     6.7815   -12.1271 C.ar    
  48 C48           -4.2397     7.3501   -10.8997 C.ar    
  49 C49           -4.3342     6.5533    -9.7741 C.ar    
  50 C50           -4.1444     5.1878    -9.8759 C.ar    
  51 C51           -3.8605     4.6191   -11.1035 C.ar    
  52 C52           -3.7702     5.4154   -12.2299 C.ar    
  53 C53           -0.9901     8.9668   -17.7321 C.3     
  54 C54           -2.4384     9.0318   -17.2432 C.3     
  55 C55           -3.3466     8.4238   -18.2808 C.2     
  56 N56           -2.5639     8.2872   -15.9878 N.am    
  57 O57           -4.0312     7.4631   -17.9994 O.2     
  58 C58           -0.0966     9.6833   -16.7526 C.ar    
  59 C59            0.4710     8.9901   -15.6999 C.ar    
  60 C60            1.2905     9.6473   -14.8014 C.ar    
  61 C61            1.5427    10.9977   -14.9558 C.ar    
  62 C62            0.9758    11.6907   -16.0090 C.ar    
  63 C63            0.1598    11.0325   -16.9100 C.ar    
  64 C64           -5.6867     8.9421   -20.3835 C.3     
  65 C65           -4.2808     8.3566   -20.5302 C.3     
  66 C66           -3.7491     8.6654   -21.9061 C.2     
  67 N67           -3.3979     8.9476   -19.5216 N.am    
  68 O68           -2.7328     9.3151   -22.0317 O.2     
  69 C69           -6.2754     8.5233   -19.0349 C.3     
  70 C70           -7.6602     9.1000   -18.8904 C.2     
  71 O71           -8.1282     9.7766   -19.7753 O.2     
  72 O72           -8.3737     8.8620   -17.7787 O.3     
  73 C73           -2.8337     7.4781   -24.7201 C.3     
  74 C74           -3.8861     8.5196   -24.3345 C.3     
  75 C75           -5.0170     8.4833   -25.3299 C.2     
  76 N76           -4.4030     8.2194   -22.9970 N.am    
  77 O77           -6.1438     8.2315   -24.9586 O.2     
  78 O78           -3.4524     6.1949   -24.8331 O.3     
  79 C79           -5.5240     9.5721   -28.8040 C.3     
  80 C80           -5.8756     8.6954   -27.6003 C.3     
  81 C81           -6.0957     7.2769   -28.0592 C.2     
  82 N82           -4.7762     8.7307   -26.6327 N.am    
  83 O83           -5.4054     6.3873   -27.6230 O.2     
  84 C84           -5.4245    11.0105   -28.3658 C.2     
  85 N85           -4.2840    11.6773   -28.0074 N.pl3   
  86 C86           -4.6431    12.9391   -27.6869 C.2     
  87 N87           -5.9342    13.0573   -27.8355 N.2     
  88 C88           -6.4397    11.8886   -28.2571 C.2     
  89 C89           -1.9069     0.0664    12.0336 C.3     
  90 C90           -1.4307    -1.3707    11.8124 C.3     
  91 C91           -1.4445    -2.1120    13.1244 C.2     
  92 N92           -2.3237    -2.0405    10.8636 N.am    
  93 O93           -2.1326    -3.1023    13.2541 O.2     
  94 N94           -2.1248     3.0451     9.6999 N.pl3   
  95 C95           -2.4949     4.3684     9.6552 C.2     
  96 N96           -2.9581     4.9521    10.7246 N.2     
  97 N97           -2.3763     5.0761     8.4825 N.pl3   
  98 C98           -1.7749     0.8539    10.7285 C.3     
  99 C99           -2.2511     2.2910    10.9496 C.3     
 100 C100          -2.9879    -4.1070     8.7928 C.3     
 101 C101          -3.0398    -2.5954     8.5619 C.3     
 102 C102          -2.1212    -1.9064     9.5379 C.2     
 103 N103          -2.6106    -2.2946     7.1896 N.3     
 104 O104          -1.1998    -1.2313     9.1304 O.2     
 105 N105          -4.9396    -6.9682     7.2531 N.pl3   
 106 C106          -5.0751    -8.3359     7.2861 C.2     
 107 N107          -4.3316    -9.0453     8.0879 N.2     
 108 N108          -5.9948    -8.9554     6.4734 N.pl3   
 109 C109          -4.0114    -4.7964     7.8883 C.3     
 110 C110          -3.9596    -6.3080     8.1191 C.3     
 111 C111          -1.7833    -2.8900     4.5691 C.3     
 112 C112          -0.7905    -2.3761     5.6136 C.3     
 113 C113          -0.6958    -0.8749     5.5208 C.2     
 114 N114          -1.2516    -2.7556     6.9558 N.3     
 115 O115          -0.9840    -0.1888     6.4784 O.2     
 116 O116          -3.0327    -2.2146     4.7265 O.3     
 117 C117           1.1571     1.6242     4.8229 C.3     
 118 C118          -0.1988     1.1644     4.2834 C.3     
 119 C119          -0.3367     1.5884     2.8438 C.2     
 120 N120          -0.2909    -0.2949     4.3736 N.am    
 121 O121          -0.4961     0.7537     1.9785 O.2     
 122 C122           1.2454     1.3094     6.2939 C.ar    
 123 C123           1.7523     0.0921     6.7100 C.ar    
 124 C124           1.8343    -0.1989     8.0580 C.ar    
 125 C125           1.4075     0.7314     8.9945 C.ar    
 126 C126           0.8993     1.9521     8.5744 C.ar    
 127 C127           0.8247     2.2405     7.2255 C.ar    
 128 O128           1.4867     0.4473    10.3211 O.3     
 129 C129           0.3001    -3.5467    15.3748 C.3     
 130 C130          -0.7058    -2.3951    15.4290 C.3     
 131 C131          -0.3301    -1.4520    16.5428 C.2     
 132 N132          -0.6923    -1.6745    14.1536 N.am    
 133 O133          -0.0761    -0.2922    16.2956 O.2     
 134 O134           1.6224    -3.0188    15.2528 O.3     
 135 C135          -1.1562    -0.2271    19.3683 C.3     
 136 C136           0.0888    -0.9808    18.8965 C.3     
 137 C137           0.6665    -1.7657    20.0459 C.2     
 138 N138          -0.2764    -1.8976    17.8137 N.am    
 139 O139           0.6113    -2.9773    20.0413 O.2     
 140 C140          -1.6586     0.6818    18.2447 C.3     
 141 C141          -2.2497    -1.2307    19.7398 C.3     
 142 C142           2.8245    -1.0978    22.9456 C.3     
 143 C143           1.7086    -1.8761    22.2457 C.3     
 144 C144           0.5614    -2.0786    23.2017 C.2     
 145 N145           1.2446    -1.1214    21.0789 N.am    
 146 O146          -0.5310    -1.6381    22.9359 O.2     
 147 C147           4.0374    -1.0000    22.0182 C.3     
 148 S148           5.3604    -0.0773    22.8481 S.3     
 149 C149           6.6884    -0.0678    21.6125 C.3     
 150 H150          -2.3864     4.1083     1.4643 H       
 151 H151          -1.9994     3.8220    -0.2493 H       
 152 H152           0.0507     2.5627     0.4742 H       
 153 H153          -0.1552     3.5626     3.2102 H       
 154 H154          -4.1488     0.0805     0.8149 H       
 155 H155          -7.5211    -0.5531     0.1590 H       
 156 H156          -6.3414     2.6917    -0.1167 H       
 157 H157          -7.7046     1.7206    -0.2624 H       
 158 H158          -2.0733     1.3747     0.1430 H       
 159 H159          -2.4603     1.6610     1.8566 H       
 160 H160          -4.1425     2.5674    -0.5237 H       
 161 H161          -4.5296     2.8537     1.1899 H       
 162 H162           2.5378     5.5991    -1.5816 H       
 163 H163           2.8820     7.2456    -0.9995 H       
 164 H164           0.7951     7.1217     0.4059 H       
 165 H165          -0.1689     4.7778    -1.0449 H       
 166 H166           4.4782     5.4669     0.3662 H       
 167 H167           2.0827     9.1676    -0.6445 H       
 168 H168           0.4932     9.4120     0.1318 H       
 169 H169           0.1120    11.4184    -1.0027 H       
 170 H170           1.8984    11.4299    -1.1703 H       
 171 H171          -1.0919     9.6186    -2.8175 H       
 172 H172           0.3331    11.4671    -3.4002 H       
 173 H173           1.8108    10.4474    -3.3699 H       
 174 H174          -2.2484     7.0809    -6.3986 H       
 175 H175          -1.0390     6.3064    -7.4501 H       
 176 H176           0.6714     7.9262    -6.6759 H       
 177 H177          -1.2688     9.5791    -5.2508 H       
 178 H178          -1.4066     4.7429    -5.2148 H       
 179 H179           0.8054     9.7070   -10.7471 H       
 180 H180          -0.3955    10.8352   -11.4205 H       
 181 H181          -2.0844     9.9319    -9.7945 H       
 182 H182          -0.3987     7.6411    -9.1327 H       
 183 H183           1.1120    13.1240    -7.9219 H       
 184 H184           3.9674    14.8443   -10.1320 H       
 185 H185           2.3597    14.9629    -7.0663 H       
 186 H186           3.5563    15.6759    -8.0058 H       
 187 H187          -0.6900    11.8585    -9.1811 H       
 188 H188           0.5109    10.7303    -8.5077 H       
 189 H189           1.0273    12.7666   -10.7222 H       
 190 H190           2.2282    11.6384   -10.0488 H       
 191 H191          -4.5058     8.5151   -13.2431 H       
 192 H192          -4.1527     7.0773   -14.2313 H       
 193 H193          -1.7422     7.2586   -13.5468 H       
 194 H194          -2.1215     9.9540   -12.4891 H       
 195 H195          -4.3880     8.4169   -10.8201 H       
 196 H196          -4.5560     6.9976    -8.8150 H       
 197 H197          -4.2175     4.5653    -8.9964 H       
 198 H198          -3.7118     3.5524   -11.1830 H       
 199 H199          -3.5521     4.9707   -13.1896 H       
 200 H200          -0.6799     7.9249   -17.8119 H       
 201 H201          -0.9146     9.4442   -18.7091 H       
 202 H202          -2.7200    10.0718   -17.0785 H       
 203 H203          -2.8532     7.3614   -15.9999 H       
 204 H204           0.2740     7.9351   -15.5793 H       
 205 H205           1.7334     9.1059   -13.9785 H       
 206 H206           2.1824    11.5113   -14.2534 H       
 207 H207           1.1726    12.7458   -16.1294 H       
 208 H208          -0.2801    11.5731   -17.7350 H       
 209 H209          -5.6345    10.0297   -20.4352 H       
 210 H210          -6.3210     8.5702   -21.1882 H       
 211 H211          -4.3207     7.2764   -20.3901 H       
 212 H212          -2.8503     9.7160   -19.7466 H       
 213 H213          -6.3276     7.4357   -18.9833 H       
 214 H214          -5.6411     8.8952   -18.2303 H       
 215 H215          -9.2568     9.2531   -17.7317 H       
 216 H216          -2.3857     7.7508   -25.6756 H       
 217 H217          -2.0600     7.4421   -23.9532 H       
 218 H218          -3.4333     9.5111   -24.3350 H       
 219 H219          -5.2158     7.6997   -22.8965 H       
 220 H220          -2.8430     5.4844   -25.0757 H       
 221 H221          -4.5686     9.2520   -29.2198 H       
 222 H222          -6.3007     9.4762   -29.5626 H       
 223 H223          -6.7850     9.0706   -27.1309 H       
 224 H224          -6.8707     7.0561   -28.7782 H       
 225 H225          -3.8750     8.9320   -26.9297 H       
 226 H226          -3.3858    11.3118   -27.9875 H       
 227 H227          -3.9728    13.7207   -27.3612 H       
 228 H228          -7.4791    11.6865   -28.4697 H       
 229 H229          -2.9500     0.0590    12.3495 H       
 230 H230          -1.2969     0.5366    12.8049 H       
 231 H231          -0.4170    -1.3600    11.4118 H       
 232 H232          -3.0606    -2.5804    11.1895 H       
 233 H233          -1.7801     2.6107     8.9041 H       
 234 H234          -3.2192     5.8858    10.6930 H       
 235 H235          -2.0316     4.6417     7.6866 H       
 236 H236          -2.6374     6.0098     8.4509 H       
 237 H237          -0.7318     0.8614    10.4125 H       
 238 H238          -2.3849     0.3837     9.9571 H       
 239 H239          -1.6412     2.7613    11.7209 H       
 240 H240          -3.2943     2.2836    11.2656 H       
 241 H241          -1.9894    -4.4762     8.5589 H       
 242 H242          -3.2204    -4.3235     9.8354 H       
 243 H243          -4.0596    -2.2400     8.7098 H       
 244 H244          -3.2482    -2.6921     6.5160 H       
 245 H245          -5.4929    -6.4402     6.6564 H       
 246 H246          -4.4271   -10.0103     8.1112 H       
 247 H247          -6.5481    -8.4275     5.8767 H       
 248 H248          -6.0904    -9.9204     6.4967 H       
 249 H249          -5.0100    -4.4272     8.1222 H       
 250 H250          -3.7790    -4.5799     6.8456 H       
 251 H251          -4.1920    -6.5245     9.1618 H       
 252 H252          -2.9611    -6.6772     7.8852 H       
 253 H253          -1.3908    -2.6998     3.5702 H       
 254 H254          -1.9302    -3.9617     4.7037 H       
 255 H255           0.1904    -2.8141     5.4291 H       
 256 H256          -0.6245    -2.4074     7.6654 H       
 257 H257          -3.7115    -2.4910     4.0957 H       
 258 H258           1.9546     1.1047     4.2916 H       
 259 H259           1.2617     2.6990     4.6744 H       
 260 H260          -0.9965     1.6159     4.8731 H       
 261 H261          -0.0604    -0.8437     3.6077 H       
 262 H262           2.0840    -0.6319     5.9806 H       
 263 H263           2.2299    -1.1500     8.3824 H       
 264 H264           0.5665     2.6780     9.3015 H       
 265 H265           0.4333     3.1923     6.8981 H       
 266 H266           2.3218     0.7117    10.7307 H       
 267 H267           0.2271    -4.1362    16.2887 H       
 268 H268           0.0810    -4.1802    14.5153 H       
 269 H269          -1.7041    -2.7929    15.6110 H       
 270 H270          -0.1420    -0.8824    14.0498 H       
 271 H271           2.3133    -3.6942    15.2126 H       
 272 H272          -0.9064     0.3774    20.2402 H       
 273 H273           0.8297    -0.2679    18.5345 H       
 274 H274          -0.4795    -2.8252    18.0114 H       
 275 H275          -2.4730     1.3034    18.6168 H       
 276 H276          -0.8435     1.3185    17.9006 H       
 277 H277          -2.0171     0.0710    17.4161 H       
 278 H278          -2.4996    -1.8351    18.8679 H       
 279 H279          -1.8918    -1.8782    20.5403 H       
 280 H280          -3.1367    -0.6937    20.0759 H       
 281 H281           2.4712    -0.0956    23.1886 H       
 282 H282           3.1086    -1.6150    23.8621 H       
 283 H283           2.0887    -2.8456    21.9236 H       
 284 H284           0.7164    -2.6178    24.1245 H       
 285 H285           1.3533    -0.1579    21.0499 H       
 286 H286           4.3907    -2.0022    21.7752 H       
 287 H287           3.7533    -0.4828    21.1018 H       
 288 H288           6.3380     0.4261    20.7062 H       
 289 H289           7.5500     0.4694    22.0091 H       
 290 H290           6.9754    -1.0933    21.3796 H       
@<TRIPOS>BOND
   1    1   10 1
   2    1    2 1
   3    1  150 1
   4    1  151 1
   5    2    4 1
   6    2    3 1
   7    2  152 1
   8    3    5 2
   9    3   15 am
  10    4  119 am
  11    4  153 1
  12    6   11 1
  13    6    7 1
  14    6  154 1
  15    7    8 2
  16    7    9 1
  17    8  155 1
  18    9  156 1
  19    9  157 1
  20   10   11 1
  21   10  158 1
  22   10  159 1
  23   11  160 1
  24   11  161 1
  25   12   17 1
  26   12   13 1
  27   12  162 1
  28   12  163 1
  29   13   14 1
  30   13   15 1
  31   13  164 1
  32   14   16 2
  33   14   22 am
  34   15  165 1
  35   17  166 1
  36   18   22 1
  37   18   19 1
  38   18  167 1
  39   18  168 1
  40   19   24 1
  41   19  169 1
  42   19  170 1
  43   20   22 1
  44   20   21 1
  45   20   24 1
  46   20  171 1
  47   21   23 2
  48   21   28 am
  49   24  172 1
  50   24  173 1
  51   25   30 1
  52   25   26 1
  53   25  174 1
  54   25  175 1
  55   26   27 1
  56   26   28 1
  57   26  176 1
  58   27   29 2
  59   27   34 am
  60   28  177 1
  61   30  178 1
  62   31   40 1
  63   31   32 1
  64   31  179 1
  65   31  180 1
  66   32   34 1
  67   32   33 1
  68   32  181 1
  69   33   35 2
  70   33   45 am
  71   34  182 1
  72   36   41 1
  73   36   37 1
  74   36  183 1
  75   37   38 2
  76   37   39 1
  77   38  184 1
  78   39  185 1
  79   39  186 1
  80   40   41 1
  81   40  187 1
  82   40  188 1
  83   41  189 1
  84   41  190 1
  85   42   47 1
  86   42   43 1
  87   42  191 1
  88   42  192 1
  89   43   44 1
  90   43   45 1
  91   43  193 1
  92   44   46 2
  93   44   56 am
  94   45  194 1
  95   47   48 ar
  96   47   52 ar
  97   48   49 ar
  98   48  195 1
  99   49   50 ar
 100   49  196 1
 101   50   51 ar
 102   50  197 1
 103   51   52 ar
 104   51  198 1
 105   52  199 1
 106   53   58 1
 107   53   54 1
 108   53  200 1
 109   53  201 1
 110   54   55 1
 111   54   56 1
 112   54  202 1
 113   55   57 2
 114   55   67 am
 115   56  203 1
 116   58   59 ar
 117   58   63 ar
 118   59   60 ar
 119   59  204 1
 120   60   61 ar
 121   60  205 1
 122   61   62 ar
 123   61  206 1
 124   62   63 ar
 125   62  207 1
 126   63  208 1
 127   64   69 1
 128   64   65 1
 129   64  209 1
 130   64  210 1
 131   65   67 1
 132   65   66 1
 133   65  211 1
 134   66   68 2
 135   66   76 am
 136   67  212 1
 137   69   70 1
 138   69  213 1
 139   69  214 1
 140   70   71 2
 141   70   72 1
 142   72  215 1
 143   73   78 1
 144   73   74 1
 145   73  216 1
 146   73  217 1
 147   74   76 1
 148   74   75 1
 149   74  218 1
 150   75   77 2
 151   75   82 am
 152   76  219 1
 153   78  220 1
 154   79   84 1
 155   79   80 1
 156   79  221 1
 157   79  222 1
 158   80   81 1
 159   80   82 1
 160   80  223 1
 161   81   83 2
 162   81  224 1
 163   82  225 1
 164   84   85 1
 165   84   88 2
 166   85   86 1
 167   85  226 1
 168   86   87 2
 169   86  227 1
 170   87   88 1
 171   88  228 1
 172   89   98 1
 173   89   90 1
 174   89  229 1
 175   89  230 1
 176   90   92 1
 177   90   91 1
 178   90  231 1
 179   91   93 2
 180   91  132 am
 181   92  102 am
 182   92  232 1
 183   94   99 1
 184   94   95 1
 185   94  233 1
 186   95   96 2
 187   95   97 1
 188   96  234 1
 189   97  235 1
 190   97  236 1
 191   98   99 1
 192   98  237 1
 193   98  238 1
 194   99  239 1
 195   99  240 1
 196  100  109 1
 197  100  101 1
 198  100  241 1
 199  100  242 1
 200  101  103 1
 201  101  102 1
 202  101  243 1
 203  102  104 2
 204  103  114 1
 205  103  244 1
 206  105  110 1
 207  105  106 1
 208  105  245 1
 209  106  107 2
 210  106  108 1
 211  107  246 1
 212  108  247 1
 213  108  248 1
 214  109  110 1
 215  109  249 1
 216  109  250 1
 217  110  251 1
 218  110  252 1
 219  111  116 1
 220  111  112 1
 221  111  253 1
 222  111  254 1
 223  112  114 1
 224  112  113 1
 225  112  255 1
 226  113  115 2
 227  113  120 am
 228  114  256 1
 229  116  257 1
 230  117  122 1
 231  117  118 1
 232  117  258 1
 233  117  259 1
 234  118  119 1
 235  118  120 1
 236  118  260 1
 237  119  121 2
 238  120  261 1
 239  122  123 ar
 240  122  127 ar
 241  123  124 ar
 242  123  262 1
 243  124  125 ar
 244  124  263 1
 245  125  126 ar
 246  125  128 1
 247  126  127 ar
 248  126  264 1
 249  127  265 1
 250  128  266 1
 251  129  134 1
 252  129  130 1
 253  129  267 1
 254  129  268 1
 255  130  132 1
 256  130  131 1
 257  130  269 1
 258  131  133 2
 259  131  138 am
 260  132  270 1
 261  134  271 1
 262  135  140 1
 263  135  141 1
 264  135  136 1
 265  135  272 1
 266  136  138 1
 267  136  137 1
 268  136  273 1
 269  137  139 2
 270  137  145 am
 271  138  274 1
 272  140  275 1
 273  140  276 1
 274  140  277 1
 275  141  278 1
 276  141  279 1
 277  141  280 1
 278  142  147 1
 279  142  143 1
 280  142  281 1
 281  142  282 1
 282  143  144 1
 283  143  145 1
 284  143  283 1
 285  144  146 2
 286  144  284 1
 287  145  285 1
 288  147  148 1
 289  147  286 1
 290  147  287 1
 291  148  149 1
 292  149  288 1
 293  149  289 1
 294  149  290 1

#	End of record

