#	Name: ASD01900801
#	Creating user name:	WinNT
#	Creation time:	15. 06. 2019 19:52

#	Modifying user name:	WinNT
#	Modification time:	15. 06. 2019 19:52

#	Program:	/corina/corina34_cracker 3.40 0067  02.08.2006

@<TRIPOS>MOLECULE
ASD01900801
  44   47    0    0    0
SMALL
NO_CHARGES


@<TRIPOS>ATOM
   1 N1            -0.7176     1.6086    -0.5701 N.am    
   2 C2            -1.0772     0.2873    -0.8597 C.ar    
   3 C3            -0.4477    -1.9732    -1.3574 C.ar    
   4 C4            -0.0933    -0.6696    -1.0712 C.ar    
   5 C5            -2.4182    -0.0682    -0.9298 C.ar    
   6 C6            -2.7726    -1.3721    -1.2156 C.ar    
   7 C7            -1.7874    -2.3279    -1.4328 C.ar    
   8 Cl8           -4.4483    -1.8173    -1.3028 Cl      
   9 C9            -1.4306     2.3202     0.3254 C.2     
  10 C10           -1.0167     3.6943     0.6743 C.ar    
  11 O11           -2.4144     1.8309     0.8459 O.2     
  12 C12           -1.6864     4.3862     1.6927 C.ar    
  13 C13           -1.2790     5.6832     2.0066 C.ar    
  14 C14           -0.2276     6.2327     1.2966 C.ar    
  15 C15            0.3879     5.4871     0.3010 C.ar    
  16 N16           -0.0082     4.2653     0.0246 N.ar    
  17 N17           -2.7379     3.7911     2.3773 N.pl3   
  18 N18           -2.1471    -3.6527    -1.7241 N.am    
  19 C19           -2.7042    -5.5627    -2.8658 C.ar    
  20 C20           -2.3393    -4.1338    -2.9656 C.2     
  21 C21           -2.3395    -4.6102    -0.7990 C.2     
  22 C22           -2.7044    -5.8654    -1.4890 C.ar    
  23 C23           -3.3196    -8.1251    -1.9999 C.ar    
  24 C24           -3.3195    -7.8283    -3.3499 C.ar    
  25 C25           -3.0096    -6.5502    -3.7885 C.ar    
  26 C26           -3.0130    -7.1481    -1.0656 C.ar    
  27 O27           -2.2310    -3.5001    -3.9960 O.2     
  28 O28           -2.2308    -4.4673     0.4022 O.2     
  29 C29           -3.0116    -6.2346    -5.2620 C.3     
  30 H30            0.0470     2.0109    -1.0110 H       
  31 H31            0.3178    -2.7169    -1.5226 H       
  32 H32            0.9493    -0.3941    -1.0123 H       
  33 H33           -3.1835     0.6748    -0.7605 H       
  34 H34           -1.7734     6.2447     2.7855 H       
  35 H35            0.1118     7.2345     1.5148 H       
  36 H36            1.2091     5.9171    -0.2532 H       
  37 H37           -2.8138     2.8244     2.4043 H       
  38 H38           -3.3964     4.3421     2.8286 H       
  39 H39           -3.5631    -9.1244    -1.6706 H       
  40 H40           -3.5598    -8.5981    -4.0683 H       
  41 H41           -3.0143    -7.3858    -0.0120 H       
  42 H42           -4.0046    -5.8982    -5.5602 H       
  43 H43           -2.2851    -5.4481    -5.4661 H       
  44 H44           -2.7466    -7.1292    -5.8256 H       
@<TRIPOS>BOND
   1    1    2 1
   2    1    9 am
   3    1   30 1
   4    2    5 ar
   5    2    4 ar
   6    3    4 ar
   7    3    7 ar
   8    3   31 1
   9    4   32 1
  10    5    6 ar
  11    5   33 1
  12    6    7 ar
  13    6    8 1
  14    7   18 1
  15    9   10 1
  16    9   11 2
  17   10   12 ar
  18   10   16 ar
  19   12   13 ar
  20   12   17 1
  21   13   14 ar
  22   13   34 1
  23   14   15 ar
  24   14   35 1
  25   15   16 ar
  26   15   36 1
  27   17   37 1
  28   17   38 1
  29   18   21 am
  30   18   20 am
  31   19   20 1
  32   19   22 ar
  33   19   25 ar
  34   20   27 2
  35   21   22 1
  36   21   28 2
  37   22   26 ar
  38   23   24 ar
  39   23   26 ar
  40   23   39 1
  41   24   25 ar
  42   24   40 1
  43   25   29 1
  44   26   41 1
  45   29   42 1
  46   29   43 1
  47   29   44 1

#	End of record

