#	Name: ASD01150854
#	Creating user name:	WinNT
#	Creation time:	15. 06. 2019 19:05

#	Modifying user name:	WinNT
#	Modification time:	15. 06. 2019 19:05

#	Program:	/corina/corina34_cracker 3.40 0067  02.08.2006

@<TRIPOS>MOLECULE
ASD01150854
  50   52    0    0    0
SMALL
NO_CHARGES


@<TRIPOS>ATOM
   1 C1            -0.0169     1.3934     0.0097 C.ar    
   2 C2             0.0021    -0.0041     0.0020 C.ar    
   3 C3             1.2238    -0.6825    -0.0133 C.ar    
   4 C4             2.4035     0.0277    -0.0207 C.ar    
   5 C5             2.3803     1.4175    -0.0126 C.ar    
   6 C6             1.1672     2.0961     0.0022 C.ar    
   7 C7            -1.2644    -0.7611     0.0105 C.2     
   8 N8            -1.2440    -2.1087     0.0031 N.am    
   9 O9            -2.3264    -0.1693     0.0243 O.2     
  10 C10           -2.4371    -2.8219     0.0111 C.2     
  11 N11           -3.6660    -2.2999     0.0257 N.2     
  12 C12           -4.5650    -3.2629     0.0296 C.2     
  13 N13           -3.9356    -4.4661     0.0175 N.pl3   
  14 C14           -2.5643    -4.2053    -0.0006 C.2     
  15 S15           -6.3110    -3.0265     0.0483 S.3     
  16 C16           -6.3833    -1.2180     0.0577 C.3     
  17 C17           -4.5735    -5.7850     0.0171 C.3     
  18 C18           -1.5210    -5.1528    -0.0177 C.2     
  19 O19           -1.8074    -6.4726    -0.0176 O.3     
  20 O20           -0.3613    -4.7813    -0.0325 O.2     
  21 C21           -0.7008    -7.3765    -0.0354 C.3     
  22 C22           -1.2183    -8.8164    -0.0325 C.3     
  23 O23            3.5451     2.1138    -0.0195 O.3     
  24 C24           -4.8055    -6.2304    -1.4037 C.2     
  25 C25            3.4487     3.5395    -0.0105 C.3     
  26 S26           -6.2550    -5.9039    -2.3448 S.3     
  27 C27           -5.5879    -6.7639    -3.7264 C.2     
  28 C28           -4.3744    -7.2263    -3.4221 C.2     
  29 C29           -3.9405    -6.9277    -2.1419 C.2     
  30 H30           -0.9590     1.9213     0.0170 H       
  31 H31            1.2427    -1.7623    -0.0189 H       
  32 H32            3.3480    -0.4958    -0.0326 H       
  33 H33            1.1534     3.1760     0.0085 H       
  34 H34           -0.3968    -2.5809    -0.0078 H       
  35 H35           -7.4246    -0.8960     0.0697 H       
  36 H36           -5.8754    -0.8387     0.9445 H       
  37 H37           -5.8933    -0.8301    -0.8354 H       
  38 H38           -3.9257    -6.5020     0.5215 H       
  39 H39           -5.5280    -5.7271     0.5402 H       
  40 H40           -0.1066    -7.2058    -0.9331 H       
  41 H41           -0.0822    -7.2110     0.8467 H       
  42 H42           -0.3742    -9.5059    -0.0461 H       
  43 H43           -1.8124    -8.9871     0.8653 H       
  44 H44           -1.8369    -8.9819    -0.9145 H       
  45 H45            4.4495     3.9714    -0.0174 H       
  46 H46            2.9033     3.8724    -0.8935 H       
  47 H47            2.9199     3.8623     0.8863 H       
  48 H48           -6.0850    -6.8974    -4.6759 H       
  49 H49           -3.7742    -7.7879    -4.1226 H       
  50 H50           -2.9775    -7.2414    -1.7670 H       
@<TRIPOS>BOND
   1    1    2 ar
   2    1    6 ar
   3    1   30 1
   4    2    3 ar
   5    2    7 1
   6    3    4 ar
   7    3   31 1
   8    4    5 ar
   9    4   32 1
  10    5    6 ar
  11    5   23 1
  12    6   33 1
  13    7    8 am
  14    7    9 2
  15    8   10 1
  16    8   34 1
  17   10   11 1
  18   10   14 2
  19   11   12 2
  20   12   13 1
  21   12   15 1
  22   13   14 1
  23   13   17 1
  24   14   18 1
  25   15   16 1
  26   16   35 1
  27   16   36 1
  28   16   37 1
  29   17   24 1
  30   17   38 1
  31   17   39 1
  32   18   19 1
  33   18   20 2
  34   19   21 1
  35   21   22 1
  36   21   40 1
  37   21   41 1
  38   22   42 1
  39   22   43 1
  40   22   44 1
  41   23   25 1
  42   24   26 1
  43   24   29 2
  44   25   45 1
  45   25   46 1
  46   25   47 1
  47   26   27 1
  48   27   28 2
  49   27   48 1
  50   28   29 1
  51   28   49 1
  52   29   50 1

#	End of record

