#	Name: ASD01915439
#	Creating user name:	WinNT
#	Creation time:	15. 06. 2019 20:05

#	Modifying user name:	WinNT
#	Modification time:	15. 06. 2019 20:05

#	Program:	/corina/corina34_cracker 3.40 0067  02.08.2006

@<TRIPOS>MOLECULE
ASD01915439
  44   47    0    0    0
SMALL
NO_CHARGES


@<TRIPOS>ATOM
   1 N1            -0.0330     1.3875     0.1679 N.pl3   
   2 N2            -0.0089    -0.0067     0.2641 N.2     
   3 C3             1.1702    -0.4605    -0.0844 C.2     
   4 C4             1.9982     0.6970    -0.4392 C.ar    
   5 C5             1.1865     1.8368    -0.2611 C.ar    
   6 N6             1.6689     3.0482    -0.5086 N.ar    
   7 C7             3.3141     0.8474    -0.8772 C.ar    
   8 C8             3.7802     2.1383    -1.1247 C.ar    
   9 C9             2.9093     3.2314    -0.9252 C.ar    
  10 C10            1.5900    -1.8818    -0.1136 C.ar    
  11 C11            2.7208    -2.2921     0.5911 C.ar    
  12 C12            3.1069    -3.6166     0.5601 C.ar    
  13 C13            2.3745    -4.5364    -0.1688 C.ar    
  14 C14            1.2519    -4.1351    -0.8704 C.ar    
  15 C15            0.8524    -2.8145    -0.8415 C.ar    
  16 C16            5.1225     2.3519    -1.5756 C.1     
  17 N17            6.1873     2.5214    -1.9332 N.1     
  18 C18            3.3945     4.6063    -1.1859 C.ar    
  19 C19            2.5281     5.5677    -1.7059 C.ar    
  20 C20            2.9859     6.8470    -1.9462 C.ar    
  21 C21            4.3014     7.1768    -1.6728 C.ar    
  22 C22            5.1655     6.2275    -1.1569 C.ar    
  23 C23            4.7180     4.9464    -0.9069 C.ar    
  24 C24            4.2065    -0.3505    -1.0766 C.3     
  25 C25            3.9553    -0.9485    -2.4623 C.3     
  26 C26            4.9491    -2.0839    -2.7156 C.3     
  27 H27           -0.7974     1.9495     0.3699 H       
  28 H28            3.2937    -1.5747     1.1600 H       
  29 H29            3.9826    -3.9357     1.1057 H       
  30 H30            2.6806    -5.5719    -0.1904 H       
  31 H31            0.6842    -4.8575    -1.4381 H       
  32 H32           -0.0272    -2.5032    -1.3854 H       
  33 H33            1.5012     5.3113    -1.9204 H       
  34 H34            2.3160     7.5924    -2.3489 H       
  35 H35            4.6553     8.1792    -1.8632 H       
  36 H36            6.1914     6.4908    -0.9458 H       
  37 H37            5.3924     4.2073    -0.5003 H       
  38 H38            5.2494    -0.0440    -0.9968 H       
  39 H39            3.9879    -1.0975    -0.3135 H       
  40 H40            2.9384    -1.3381    -2.5111 H       
  41 H41            4.0852    -0.1761    -3.2204 H       
  42 H42            4.7738    -2.8867    -1.9995 H       
  43 H43            4.8154    -2.4647    -3.7282 H       
  44 H44            5.9661    -1.7093    -2.5996 H       
@<TRIPOS>BOND
   1    1    2 1
   2    1    5 1
   3    1   27 1
   4    2    3 2
   5    3    4 1
   6    3   10 1
   7    4    7 ar
   8    4    5 ar
   9    5    6 ar
  10    6    9 ar
  11    7    8 ar
  12    7   24 1
  13    8    9 ar
  14    8   16 1
  15    9   18 1
  16   10   11 ar
  17   10   15 ar
  18   11   12 ar
  19   11   28 1
  20   12   13 ar
  21   12   29 1
  22   13   14 ar
  23   13   30 1
  24   14   15 ar
  25   14   31 1
  26   15   32 1
  27   16   17 3
  28   18   19 ar
  29   18   23 ar
  30   19   20 ar
  31   19   33 1
  32   20   21 ar
  33   20   34 1
  34   21   22 ar
  35   21   35 1
  36   22   23 ar
  37   22   36 1
  38   23   37 1
  39   24   25 1
  40   24   38 1
  41   24   39 1
  42   25   26 1
  43   25   40 1
  44   25   41 1
  45   26   42 1
  46   26   43 1
  47   26   44 1

#	End of record

