#	Name: ASD04880152
#	Creating user name:	WinNT
#	Creation time:	15. 06. 2019 20:52

#	Modifying user name:	WinNT
#	Modification time:	15. 06. 2019 20:52

#	Program:	/corina/corina34_cracker 3.40 0067  02.08.2006

@<TRIPOS>MOLECULE
ASD04880152
  50   52    0    0    0
SMALL
NO_CHARGES


@<TRIPOS>ATOM
   1 C1            -0.0144     1.2118     0.0087 C.2     
   2 O2             0.0581    -0.0018    -0.0139 O.2     
   3 C3             1.2184     2.0264    -0.0193 C.ar    
   4 C4             2.4681     1.4104     0.0724 C.ar    
   5 C5             3.6147     2.1766     0.0451 C.ar    
   6 C6             3.5285     3.5527    -0.0728 C.ar    
   7 C7             2.2935     4.1693    -0.1641 C.ar    
   8 C8             1.1388     3.4144    -0.1434 C.ar    
   9 C9             4.9644     1.5136     0.1445 C.3     
  10 F10            5.4245     1.1981    -1.1385 F       
  11 F11            5.8676     2.3849     0.7627 F       
  12 F12            4.8540     0.3423     0.9014 F       
  13 N13           -1.2192     1.8141     0.0538 N.am    
  14 N14           -1.4361     3.1832     0.1953 N.2     
  15 C15           -2.6797     3.5203     0.2112 C.2     
  16 C16           -3.5397     2.2851     0.0667 C.3     
  17 C17           -2.5204     1.1340    -0.0449 C.3     
  18 C18           -4.4291     2.1033     1.2983 C.3     
  19 C19           -4.3893     2.3682    -1.2030 C.3     
  20 C20           -3.1860     4.8979     0.3494 C.ar    
  21 C21           -2.2909     5.9638     0.4765 C.ar    
  22 C22           -2.7709     7.2531     0.6058 C.ar    
  23 C23           -4.1445     7.4883     0.6099 C.ar    
  24 C24           -5.0331     6.4309     0.4838 C.ar    
  25 C25           -4.5614     5.1418     0.3481 C.ar    
  26 O26           -4.6147     8.7573     0.7381 O.3     
  27 C27           -6.0336     8.9269     0.7345 C.3     
  28 O28           -1.9028     8.2926     0.7296 O.3     
  29 C29           -0.5088     7.9786     0.7180 C.3     
  30 H30            2.5367     0.3366     0.1648 H       
  31 H31            4.4294     4.1480    -0.0933 H       
  32 H32            2.2332     5.2438    -0.2555 H       
  33 H33            0.1754     3.8966    -0.2193 H       
  34 H34           -2.6161     0.6263    -1.0047 H       
  35 H35           -2.6484     0.4297     0.7772 H       
  36 H36           -5.0938     2.9616     1.3963 H       
  37 H37           -5.0219     1.1954     1.1876 H       
  38 H38           -3.8051     2.0235     2.1885 H       
  39 H39           -3.7374     2.4744    -2.0701 H       
  40 H40           -4.9823     1.4591    -1.3034 H       
  41 H41           -5.0535     3.2301    -1.1399 H       
  42 H42           -1.2266     5.7802     0.4739 H       
  43 H43           -6.0968     6.6177     0.4875 H       
  44 H44           -5.2555     4.3207     0.2456 H       
  45 H45           -6.4413     8.5572    -0.2064 H       
  46 H46           -6.4684     8.3683     1.5633 H       
  47 H47           -6.2734     9.9846     0.8437 H       
  48 H48            0.0711     8.8954     0.8243 H       
  49 H49           -0.2808     7.3065     1.5453 H       
  50 H50           -0.2533     7.4943    -0.2245 H       
@<TRIPOS>BOND
   1    1    2 2
   2    1    3 1
   3    1   13 am
   4    3    4 ar
   5    3    8 ar
   6    4    5 ar
   7    4   30 1
   8    5    6 ar
   9    5    9 1
  10    6    7 ar
  11    6   31 1
  12    7    8 ar
  13    7   32 1
  14    8   33 1
  15    9   10 1
  16    9   11 1
  17    9   12 1
  18   13   14 1
  19   13   17 1
  20   14   15 2
  21   15   16 1
  22   15   20 1
  23   16   17 1
  24   16   18 1
  25   16   19 1
  26   17   34 1
  27   17   35 1
  28   18   36 1
  29   18   37 1
  30   18   38 1
  31   19   39 1
  32   19   40 1
  33   19   41 1
  34   20   21 ar
  35   20   25 ar
  36   21   22 ar
  37   21   42 1
  38   22   23 ar
  39   22   28 1
  40   23   24 ar
  41   23   26 1
  42   24   25 ar
  43   24   43 1
  44   25   44 1
  45   26   27 1
  46   27   45 1
  47   27   46 1
  48   27   47 1
  49   28   29 1
  50   29   48 1
  51   29   49 1
  52   29   50 1

#	End of record

