#	Name: ASD01148415
#	Creating user name:	WinNT
#	Creation time:	15. 06. 2019 19:02

#	Modifying user name:	WinNT
#	Modification time:	15. 06. 2019 19:02

#	Program:	/corina/corina34_cracker 3.40 0067  02.08.2006

@<TRIPOS>MOLECULE
ASD01148415
  46   48    0    0    0
SMALL
NO_CHARGES


@<TRIPOS>ATOM
   1 C1             0.3640     1.8432     0.0680 C.ar    
   2 C2             0.4626     0.4644    -0.0073 C.ar    
   3 C3            -0.6837    -0.3068    -0.0949 C.ar    
   4 C4            -1.9264     0.3011    -0.1071 C.ar    
   5 C5            -2.0236     1.6779    -0.0323 C.ar    
   6 C6            -0.8799     2.4485     0.0615 C.ar    
   7 C7            -3.3778     2.3389    -0.0466 C.3     
   8 O8            -4.3706     1.4951     0.5714 O.3     
   9 C9            -3.3985     3.5792     0.8784 C.3     
  10 C10           -3.9260     3.0097     2.1816 C.2     
  11 N11           -4.4464     1.8539     1.9369 N.2     
  12 C12           -3.8563     3.6645     3.5027 C.ar    
  13 C13           -4.3839     3.0256     4.6280 C.ar    
  14 C14           -3.2577     4.9205     3.6290 C.ar    
  15 C15           -3.1926     5.5313     4.8610 C.ar    
  16 C16           -3.7252     4.8950     5.9850 C.ar    
  17 C17           -4.3189     3.6361     5.8596 C.ar    
  18 C18           -3.6555     5.5503     7.3070 C.2     
  19 O19           -4.2149     5.0507     8.2631 O.2     
  20 N20           -2.9714     6.7024     7.4527 N.am    
  21 C21           -4.8939     2.9500     7.0720 C.3     
  22 C22           -3.7871     2.7117    -1.4730 C.3     
  23 F23           -3.8263     1.5580    -2.2634 F       
  24 F24           -5.0527     3.3075    -1.4544 F       
  25 F25           -2.8563     3.6103    -2.0054 F       
  26 Cl26          -0.5619    -2.0359    -0.1900 Cl      
  27 Cl27           2.0227    -0.2970     0.0075 Cl      
  28 Cl28           1.8005     2.8118     0.1779 Cl      
  29 C29           -2.9078     7.3004     8.6589 C.2     
  30 O30           -2.2246     8.4509     8.8045 O.3     
  31 C31           -2.1986     9.0387    10.1320 C.3     
  32 O32           -3.4670     6.8009     9.6146 O.2     
  33 H33           -2.8208    -0.3004    -0.1754 H       
  34 H34           -0.9571     3.5241     0.1203 H       
  35 H35           -2.3937     3.9805     1.0101 H       
  36 H36           -4.0728     4.3416     0.4883 H       
  37 H37           -4.8431     2.0529     4.5310 H       
  38 H38           -2.8457     5.4122     2.7601 H       
  39 H39           -2.7296     6.5021     4.9587 H       
  40 H40           -2.5249     7.1012     6.6896 H       
  41 H41           -5.9015     3.3226     7.2566 H       
  42 H42           -4.9304     1.8747     6.8977 H       
  43 H43           -4.2657     3.1566     7.9384 H       
  44 H44           -3.2170     9.2603    10.4512 H       
  45 H45           -1.7433     8.3372    10.8311 H       
  46 H46           -1.6161     9.9597    10.1102 H       
@<TRIPOS>BOND
   1    1    2 ar
   2    1   28 1
   3    1    6 ar
   4    2    3 ar
   5    2   27 1
   6    3    4 ar
   7    3   26 1
   8    4    5 ar
   9    4   33 1
  10    5    6 ar
  11    5    7 1
  12    6   34 1
  13    7    8 1
  14    7    9 1
  15    7   22 1
  16    8   11 1
  17    9   10 1
  18    9   35 1
  19    9   36 1
  20   10   11 2
  21   10   12 1
  22   12   13 ar
  23   12   14 ar
  24   13   17 ar
  25   13   37 1
  26   14   15 ar
  27   14   38 1
  28   15   16 ar
  29   15   39 1
  30   16   17 ar
  31   16   18 1
  32   17   21 1
  33   18   19 2
  34   18   20 am
  35   20   29 am
  36   20   40 1
  37   21   41 1
  38   21   42 1
  39   21   43 1
  40   22   23 1
  41   22   24 1
  42   22   25 1
  43   29   30 1
  44   29   32 2
  45   30   31 1
  46   31   44 1
  47   31   45 1
  48   31   46 1

#	End of record

