#	Name: ASD09116020
#	Creating user name:	WinNT
#	Creation time:	15. 06. 2019 21:20

#	Modifying user name:	WinNT
#	Modification time:	15. 06. 2019 21:20

#	Program:	/corina/corina34_cracker 3.40 0067  02.08.2006

@<TRIPOS>MOLECULE
ASD09116020
  80   87    0    0    0
SMALL
NO_CHARGES


@<TRIPOS>ATOM
   1 C1            -0.1907     1.3876     0.3561 C.ar    
   2 C2            -0.1589    -0.0042     0.3063 C.ar    
   3 C3            -1.3370    -0.6936     0.1532 C.ar    
   4 N4            -2.4699     0.0052     0.0584 N.ar    
   5 N5            -2.5021     1.2879     0.1044 N.ar    
   6 C6            -1.4034     2.0328     0.2555 C.ar    
   7 N7            -1.3488    -2.0880     0.0978 N.pl3   
   8 N8            -0.2380    -2.9427     0.1843 N.2     
   9 C9            -0.6908    -4.1698     0.0884 C.2     
  10 N10           -2.0211    -4.1341    -0.0532 N.2     
  11 C11           -2.4342    -2.8848    -0.0439 C.2     
  12 N12            0.0885    -5.3259     0.1271 N.pl3   
  13 C13           -0.5252    -6.5844     0.1236 C.ar    
  14 C14            0.1057    -7.6628    -0.4828 C.ar    
  15 C15           -1.7621    -6.7554     0.7313 C.ar    
  16 C16           -2.3677    -7.9981     0.7276 C.ar    
  17 C17           -1.7377    -9.0759     0.1152 C.ar    
  18 C18           -0.4989    -8.9047    -0.4868 C.ar    
  19 N19           -3.7436    -2.4606    -0.1665 N.pl3   
  20 N20           -2.3508   -10.3360     0.1109 N.3     
  21 F21           -3.5708    -8.1655     1.3190 F       
  22 C22           -2.5889   -10.8008    -1.2616 C.3     
  23 C23           -3.5961   -10.3181     0.8890 C.3     
  24 C24           -4.1603   -11.7375     0.9841 C.3     
  25 C25           -4.4253   -12.2717    -0.4262 C.3     
  26 C26           -3.1230   -12.2346    -1.2307 C.3     
  27 N27           -4.9120   -13.6552    -0.3436 N.3     
  28 C28           -6.2190   -13.7159     0.3363 C.3     
  29 C29           -5.0541   -14.2482    -1.6905 C.3     
  30 C30           -6.2711   -15.1998    -1.5774 C.3     
  31 C31           -7.2063   -14.4015    -0.6314 C.3     
  32 C32            1.1686     2.0186     0.5266 C.3     
  33 C33            1.7813     1.4492     1.8179 C.3     
  34 C34            1.8160    -0.0781     1.7640 C.3     
  35 C35            1.2283    -0.5825     0.4346 C.3     
  36 C36            2.0470     1.5423    -0.6433 C.3     
  37 C37            2.0822     0.0150    -0.6973 C.3     
  38 C38           -1.4862     3.5129     0.3032 C.ar    
  39 C39           -2.4712     4.1530     1.0609 C.ar    
  40 C40           -2.5120     5.5322     1.0778 C.ar    
  41 N41           -1.6385     6.2438     0.3917 N.ar    
  42 C42           -0.6937     5.6793    -0.3356 C.ar    
  43 C43           -0.5776     4.3060    -0.4036 C.ar    
  44 H44            1.0557    -5.2580     0.1566 H       
  45 H45            1.0695    -7.5302    -0.9518 H       
  46 H46           -2.2506    -5.9179     1.2071 H       
  47 H47           -0.0096    -9.7418    -0.9624 H       
  48 H48           -4.4561    -3.1104    -0.2714 H       
  49 H49           -3.9502    -1.5131    -0.1477 H       
  50 H50           -3.3198   -10.1513    -1.7433 H       
  51 H51           -1.6541   -10.7734    -1.8216 H       
  52 H52           -3.3929    -9.9401     1.8909 H       
  53 H53           -4.3223    -9.6708     0.3972 H       
  54 H54           -3.4403   -12.3822     1.4881 H       
  55 H55           -5.0927   -11.7214     1.5483 H       
  56 H56           -5.1742   -11.6498    -0.9165 H       
  57 H57           -3.3143   -12.5737    -2.2487 H       
  58 H58           -2.3867   -12.8871    -0.7615 H       
  59 H59           -6.1332   -14.2990     1.2532 H       
  60 H60           -6.5645   -12.7080     0.5661 H       
  61 H61           -5.2479   -13.4704    -2.4290 H       
  62 H62           -4.1574   -14.8087    -1.9548 H       
  63 H63           -6.7384   -15.3534    -2.5501 H       
  64 H64           -5.9828   -16.1510    -1.1299 H       
  65 H65           -7.8722   -15.0737    -0.0904 H       
  66 H66           -7.7768   -13.6592    -1.1898 H       
  67 H67            1.0973     3.1055     0.5688 H       
  68 H68            2.7965     1.8289     1.9331 H       
  69 H69            1.1821     1.7662     2.6715 H       
  70 H70            2.8476    -0.4186     1.8542 H       
  71 H71            1.2328    -0.4814     2.5919 H       
  72 H72            1.2072    -1.6717     0.3997 H       
  73 H73            1.6407     1.9267    -1.5789 H       
  74 H74            3.0603     1.9217    -0.5110 H       
  75 H75            3.1120    -0.3258    -0.5902 H       
  76 H76            1.6927    -0.3207    -1.6583 H       
  77 H77           -3.1899     3.5766     1.6244 H       
  78 H78           -3.2693     6.0357     1.6602 H       
  79 H79            0.0009     6.3004    -0.8817 H       
  80 H80            0.1986     3.8505    -1.0007 H       
@<TRIPOS>BOND
   1    1    2 ar
   2    1   32 1
   3    1    6 ar
   4    2    3 ar
   5    2   35 1
   6    3    4 ar
   7    3    7 1
   8    4    5 ar
   9    5    6 ar
  10    6   38 1
  11    7    8 1
  12    7   11 1
  13    8    9 2
  14    9   10 1
  15    9   12 1
  16   10   11 2
  17   11   19 1
  18   12   13 1
  19   12   44 1
  20   13   14 ar
  21   13   15 ar
  22   14   18 ar
  23   14   45 1
  24   15   16 ar
  25   15   46 1
  26   16   17 ar
  27   16   21 1
  28   17   18 ar
  29   17   20 1
  30   18   47 1
  31   19   48 1
  32   19   49 1
  33   20   22 1
  34   20   23 1
  35   22   26 1
  36   22   50 1
  37   22   51 1
  38   23   24 1
  39   23   52 1
  40   23   53 1
  41   24   25 1
  42   24   54 1
  43   24   55 1
  44   25   26 1
  45   25   27 1
  46   25   56 1
  47   26   57 1
  48   26   58 1
  49   27   28 1
  50   27   29 1
  51   28   31 1
  52   28   59 1
  53   28   60 1
  54   29   30 1
  55   29   61 1
  56   29   62 1
  57   30   31 1
  58   30   63 1
  59   30   64 1
  60   31   65 1
  61   31   66 1
  62   32   33 1
  63   32   36 1
  64   32   67 1
  65   33   34 1
  66   33   68 1
  67   33   69 1
  68   34   35 1
  69   34   70 1
  70   34   71 1
  71   35   37 1
  72   35   72 1
  73   36   37 1
  74   36   73 1
  75   36   74 1
  76   37   75 1
  77   37   76 1
  78   38   39 ar
  79   38   43 ar
  80   39   40 ar
  81   39   77 1
  82   40   41 ar
  83   40   78 1
  84   41   42 ar
  85   42   43 ar
  86   42   79 1
  87   43   80 1

#	End of record

