#	Name: ASD08170421
#	Creating user name:	WinNT
#	Creation time:	15. 06. 2019 21:17

#	Modifying user name:	WinNT
#	Modification time:	15. 06. 2019 21:17

#	Program:	/corina/corina34_cracker 3.40 0067  02.08.2006

@<TRIPOS>MOLECULE
ASD08170421
  35   36    0    0    0
SMALL
NO_CHARGES


@<TRIPOS>ATOM
   1 N1            -0.0155     1.2947     0.0092 N.2     
   2 C2             0.0021    -0.0041     0.0020 C.2     
   3 S3             1.6320    -0.5310    -0.0164 S.3     
   4 C4             2.1557     1.1534    -0.0123 C.2     
   5 N5             1.0945     1.8960     0.0018 N.2     
   6 C6             6.0135     2.4484     2.8225 C.2     
   7 S7             5.8899     3.9033     3.8122 S.3     
   8 C8             6.6658     3.0734     5.0945 C.2     
   9 N9             6.9343     1.8636     4.7053 N.2     
  10 N10            6.5944     1.5356     3.5345 N.2     
  11 N11            6.9599     3.6068     6.3447 N.am    
  12 C12            7.5759     2.8484     7.2730 C.2     
  13 O13            7.8738     1.7007     7.0180 O.2     
  14 C14            7.8946     3.4264     8.6278 C.3     
  15 N15           -1.1168    -0.8300     0.0087 N.am    
  16 C16           -2.3521    -0.2911     0.0233 C.2     
  17 O17           -2.4879     0.9140     0.0307 O.2     
  18 C18           -3.5646    -1.1861     0.0305 C.3     
  19 C19            3.5816     1.6410    -0.0229 C.3     
  20 C20            4.0775     1.7984     1.4160 C.3     
  21 C21            5.5251     2.2933     1.4053 C.3     
  22 H22            6.7217     4.5247     6.5487 H       
  23 H23            6.9716     3.7408     9.1149 H       
  24 H24            8.3883     2.6703     9.2384 H       
  25 H25            8.5544     4.2860     8.5100 H       
  26 H26           -1.0082    -1.7939     0.0028 H       
  27 H27           -3.8469    -1.4070     1.0599 H       
  28 H28           -4.3903    -0.6833    -0.4728 H       
  29 H29           -3.3333    -2.1153    -0.4902 H       
  30 H30            4.2086     0.9191    -0.5463 H       
  31 H31            3.6328     2.6033    -0.5321 H       
  32 H32            3.4505     2.5202     1.9394 H       
  33 H33            4.0263     0.8360     1.9252 H       
  34 H34            5.5763     3.2557     0.8960 H       
  35 H35            6.1521     1.5715     0.8818 H       
@<TRIPOS>BOND
   1    1    2 2
   2    1    5 1
   3    2    3 1
   4    2   15 1
   5    3    4 1
   6    4    5 2
   7    4   19 1
   8    6    7 1
   9    6   21 1
  10    6   10 2
  11    7    8 1
  12    8    9 2
  13    8   11 1
  14    9   10 1
  15   11   12 am
  16   11   22 1
  17   12   13 2
  18   12   14 1
  19   14   23 1
  20   14   24 1
  21   14   25 1
  22   15   16 am
  23   15   26 1
  24   16   17 2
  25   16   18 1
  26   18   27 1
  27   18   28 1
  28   18   29 1
  29   19   20 1
  30   19   30 1
  31   19   31 1
  32   20   21 1
  33   20   32 1
  34   20   33 1
  35   21   34 1
  36   21   35 1

#	End of record

