#	Name: ASD01811634
#	Creating user name:	WinNT
#	Creation time:	15. 06. 2019 19:27

#	Modifying user name:	WinNT
#	Modification time:	15. 06. 2019 19:27

#	Program:	/corina/corina34_cracker 3.40 0067  02.08.2006

@<TRIPOS>MOLECULE
ASD01811634
  48   52    0    0    0
SMALL
NO_CHARGES


@<TRIPOS>ATOM
   1 C1            -0.0167     1.3784     0.0096 C.ar    
   2 C2             0.0021    -0.0041     0.0020 C.ar    
   3 C3             1.2023    -0.6844    -0.0131 C.ar    
   4 C4             2.4053     0.0168    -0.0207 C.ar    
   5 C5             2.3744     1.4090    -0.0126 C.ar    
   6 C6             1.1743     2.0834     0.0020 C.ar    
   7 N7             3.7262    -0.4367    -0.0354 N.am    
   8 C8             4.6120     0.5787    -0.0347 C.2     
   9 C9             3.8095     1.8496    -0.0211 C.3     
  10 O10            4.1097     2.6839    -1.1442 O.3     
  11 C11            5.3001     3.4223    -0.8118 C.3     
  12 C12            5.3753     3.5079     0.7257 C.3     
  13 C13            4.1407     2.7075     1.2131 C.3     
  14 O14            5.8212     0.4854    -0.0436 O.2     
  15 C15            4.1047    -1.8519    -0.0496 C.3     
  16 C16            4.2225    -2.3262    -1.4751 C.ar    
  17 C17            5.4348    -2.2331    -2.1344 C.ar    
  18 C18            5.5482    -2.6665    -3.4400 C.ar    
  19 C19            4.4390    -3.1983    -4.0936 C.ar    
  20 C20            3.2204    -3.2897    -3.4249 C.ar    
  21 C21            3.1192    -2.8583    -2.1177 C.ar    
  22 C22            4.5550    -3.6656    -5.4981 C.2     
  23 C23            5.7176    -3.6339    -6.2924 C.2     
  24 N24            5.4220    -4.1302    -7.4646 N.2     
  25 N25            4.0704    -4.4954    -7.4650 N.pl3   
  26 C26            3.5562    -4.2092    -6.2520 C.2     
  27 C27            3.3419    -5.0907    -8.5880 C.3     
  28 H28           -0.9585     1.9069     0.0169 H       
  29 H29           -0.9273    -0.5541     0.0083 H       
  30 H30            1.2087    -1.7643    -0.0187 H       
  31 H31            1.1622     3.1634     0.0069 H       
  32 H32            6.1777     2.9030    -1.1971 H       
  33 H33            5.2448     4.4247    -1.2363 H       
  34 H34            6.2948     3.0488     1.0887 H       
  35 H35            5.3107     4.5454     1.0534 H       
  36 H36            3.3145     3.3757     1.4560 H       
  37 H37            4.3958     2.0796     2.0668 H       
  38 H38            5.0627    -1.9768     0.4552 H       
  39 H39            3.3433    -2.4368     0.4663 H       
  40 H40            6.2941    -1.8203    -1.6269 H       
  41 H41            6.4952    -2.5930    -3.9540 H       
  42 H42            2.3573    -3.7013    -3.9270 H       
  43 H43            2.1749    -2.9287    -1.5983 H       
  44 H44            6.6848    -3.2636    -5.9863 H       
  45 H45            2.5365    -4.3740    -5.9365 H       
  46 H46            3.4143    -6.1769    -8.5332 H       
  47 H47            2.2943    -4.7935    -8.5400 H       
  48 H48            3.7751    -4.7446    -9.5265 H       
@<TRIPOS>BOND
   1    1    2 ar
   2    1    6 ar
   3    1   28 1
   4    2    3 ar
   5    2   29 1
   6    3    4 ar
   7    3   30 1
   8    4    5 ar
   9    4    7 1
  10    5    6 ar
  11    5    9 1
  12    6   31 1
  13    7    8 am
  14    7   15 1
  15    8    9 1
  16    8   14 2
  17    9   10 1
  18    9   13 1
  19   10   11 1
  20   11   12 1
  21   11   32 1
  22   11   33 1
  23   12   13 1
  24   12   34 1
  25   12   35 1
  26   13   36 1
  27   13   37 1
  28   15   16 1
  29   15   38 1
  30   15   39 1
  31   16   17 ar
  32   16   21 ar
  33   17   18 ar
  34   17   40 1
  35   18   19 ar
  36   18   41 1
  37   19   20 ar
  38   19   22 1
  39   20   21 ar
  40   20   42 1
  41   21   43 1
  42   22   23 1
  43   22   26 2
  44   23   24 2
  45   23   44 1
  46   24   25 1
  47   25   26 1
  48   25   27 1
  49   26   45 1
  50   27   46 1
  51   27   47 1
  52   27   48 1

#	End of record

