#	Name: ASD01880044
#	Creating user name:	WinNT
#	Creation time:	15. 06. 2019 19:39

#	Modifying user name:	WinNT
#	Modification time:	15. 06. 2019 19:39

#	Program:	/corina/corina34_cracker 3.40 0067  02.08.2006

@<TRIPOS>MOLECULE
ASD01880044
  57   59    0    0    0
SMALL
NO_CHARGES


@<TRIPOS>ATOM
   1 S1            -0.0218     1.7577     0.0117 S.3     
   2 C2             0.0021    -0.0041     0.0020 C.ar    
   3 C3            -1.1858    -0.7363     0.0094 C.ar    
   4 C4            -1.1236    -2.1135     0.0015 C.ar    
   5 N5             0.0392    -2.7386    -0.0125 N.ar    
   6 C6             1.1845    -2.0821    -0.0199 C.ar    
   7 C7             1.2093    -0.7037    -0.0191 C.ar    
   8 C8             5.3387     9.9998     0.0069 C.ar    
   9 C9             4.0095     9.6023     0.0165 C.ar    
  10 C10            2.9912    10.5524     0.0300 C.ar    
  11 C11            3.2890    11.8837     0.0344 C.ar    
  12 C12            4.6262    12.3041     0.0254 C.ar    
  13 C13            5.6568    11.3470     0.0174 C.ar    
  14 C14            4.9487    13.7331     0.0296 C.2     
  15 C15            3.8415    14.7553     0.0438 C.3     
  16 C16            4.4453    16.1611     0.0456 C.3     
  17 C17            3.3252    17.1974    -0.0658 C.3     
  18 C18            5.2176    16.3828     1.3476 C.3     
  19 O19            6.9541    11.7416     0.0091 O.3     
  20 O20            6.1072    14.0936     0.0217 O.2     
  21 C21            1.8894     3.6894     0.0038 C.ar    
  22 C22            6.4351     8.9661    -0.0083 C.3     
  23 C23            2.3126     7.9400     0.0226 C.3     
  24 O24            3.7002     8.2814     0.0122 O.3     
  25 C25            1.7399     2.1898    -0.0028 C.3     
  26 C26            1.9694     4.3707     1.2040 C.ar    
  27 C27            2.1065     5.7462     1.2100 C.ar    
  28 C28            2.1641     6.4404     0.0160 C.ar    
  29 C29            2.0850     5.7589    -1.1841 C.ar    
  30 C30            1.9522     4.3830    -1.1903 C.ar    
  31 H31           -2.1404    -0.2313     0.0216 H       
  32 H32           -2.0378    -2.6885     0.0071 H       
  33 H33            2.1140    -2.6320    -0.0313 H       
  34 H34            2.1499    -0.1729    -0.0252 H       
  35 H35            1.9595    10.2332     0.0367 H       
  36 H36            2.4938    12.6144     0.0446 H       
  37 H37            3.2186    14.6285    -0.8417 H       
  38 H38            3.2334    14.6199     0.9382 H       
  39 H39            5.1233    16.2664    -0.8014 H       
  40 H40            2.6472    17.0921     0.7812 H       
  41 H41            3.7554    18.1989    -0.0646 H       
  42 H42            2.7750    17.0395    -0.9934 H       
  43 H43            4.5396    16.2775     2.1946 H       
  44 H44            6.0155    15.6445     1.4270 H       
  45 H45            5.6477    17.3843     1.3489 H       
  46 H46            7.3364    11.8552     0.8900 H       
  47 H47            6.6904     8.7223    -1.0396 H       
  48 H48            7.3145     9.3616     0.4999 H       
  49 H49            6.0935     8.0665     0.5038 H       
  50 H50            1.8449     8.3475     0.9189 H       
  51 H51            1.8292     8.3569    -0.8609 H       
  52 H52            2.2236     1.7726     0.8804 H       
  53 H53            2.2066     1.7821    -0.8995 H       
  54 H54            1.9245     3.8284     2.1368 H       
  55 H55            2.1683     6.2786     2.1477 H       
  56 H56            2.1296     6.3013    -2.1170 H       
  57 H57            1.8905     3.8506    -2.1279 H       
@<TRIPOS>BOND
   1    1    2 1
   2    1   25 1
   3    2    3 ar
   4    2    7 ar
   5    3    4 ar
   6    3   31 1
   7    4    5 ar
   8    4   32 1
   9    5    6 ar
  10    6    7 ar
  11    6   33 1
  12    7   34 1
  13    8    9 ar
  14    8   22 1
  15    8   13 ar
  16    9   10 ar
  17    9   24 1
  18   10   11 ar
  19   10   35 1
  20   11   12 ar
  21   11   36 1
  22   12   13 ar
  23   12   14 1
  24   13   19 1
  25   14   15 1
  26   14   20 2
  27   15   16 1
  28   15   37 1
  29   15   38 1
  30   16   17 1
  31   16   18 1
  32   16   39 1
  33   17   40 1
  34   17   41 1
  35   17   42 1
  36   18   43 1
  37   18   44 1
  38   18   45 1
  39   19   46 1
  40   21   25 1
  41   21   26 ar
  42   21   30 ar
  43   22   47 1
  44   22   48 1
  45   22   49 1
  46   23   24 1
  47   23   28 1
  48   23   50 1
  49   23   51 1
  50   25   52 1
  51   25   53 1
  52   26   27 ar
  53   26   54 1
  54   27   28 ar
  55   27   55 1
  56   28   29 ar
  57   29   30 ar
  58   29   56 1
  59   30   57 1

#	End of record

