#	Name: ASD01882732
#	Creating user name:	WinNT
#	Creation time:	15. 06. 2019 19:45

#	Modifying user name:	WinNT
#	Modification time:	15. 06. 2019 19:45

#	Program:	/corina/corina34_cracker 3.40 0067  02.08.2006

@<TRIPOS>MOLECULE
ASD01882732
  29   30    0    0    0
SMALL
NO_CHARGES


@<TRIPOS>ATOM
   1 N1            -0.0165     1.3692     0.0096 N.pl3   
   2 O2             1.1412    -0.7243    -0.0127 O.3     
   3 C3             0.0021    -0.0041     0.0020 C.2     
   4 N4            -1.0753    -0.7270     0.0089 N.2     
   5 C5            -0.6823    -2.1496     0.0076 C.3     
   6 C6             0.8153    -2.0697     0.3922 C.3     
   7 C7             1.6390    -3.0940    -0.3909 C.3     
   8 O8             3.0178    -2.9666    -0.0377 O.3     
   9 C9             3.8916    -3.8096    -0.6484 C.ar    
  10 C10            5.2452    -3.7410    -0.3526 C.ar    
  11 C11            6.1314    -4.5989    -0.9747 C.ar    
  12 C12            5.6702    -5.5255    -1.8915 C.ar    
  13 C13            4.3216    -5.5956    -2.1884 C.ar    
  14 C14            3.4306    -4.7440    -1.5644 C.ar    
  15 C15            6.6391    -6.4602    -2.5687 C.3     
  16 F16            6.7712    -7.6265    -1.8075 F       
  17 F17            6.1599    -6.7862    -3.8420 F       
  18 F18            7.8855    -5.8357    -2.6852 F       
  19 H19            0.8168     1.8655     0.0043 H       
  20 H20           -0.8631     1.8427     0.0162 H       
  21 H21           -1.2463    -2.7101     0.7532 H       
  22 H22           -0.8071    -2.5872    -0.9829 H       
  23 H23            0.9511    -2.1991     1.4659 H       
  24 H24            1.2935    -4.0992    -0.1495 H       
  25 H25            1.5198    -2.9156    -1.4596 H       
  26 H26            5.6060    -3.0171     0.3632 H       
  27 H27            7.1853    -4.5456    -0.7450 H       
  28 H28            3.9639    -6.3197    -2.9054 H       
  29 H29            2.3767    -4.8024    -1.7930 H       
@<TRIPOS>BOND
   1    1    3 1
   2    1   19 1
   3    1   20 1
   4    2    3 1
   5    2    6 1
   6    3    4 2
   7    4    5 1
   8    5    6 1
   9    5   21 1
  10    5   22 1
  11    6    7 1
  12    6   23 1
  13    7    8 1
  14    7   24 1
  15    7   25 1
  16    8    9 1
  17    9   10 ar
  18    9   14 ar
  19   10   11 ar
  20   10   26 1
  21   11   12 ar
  22   11   27 1
  23   12   13 ar
  24   12   15 1
  25   13   14 ar
  26   13   28 1
  27   14   29 1
  28   15   16 1
  29   15   17 1
  30   15   18 1

#	End of record

