#	Name: ASD01208595
#	Creating user name:	WinNT
#	Creation time:	15. 06. 2019 19:10

#	Modifying user name:	WinNT
#	Modification time:	15. 06. 2019 19:10

#	Program:	/corina/corina34_cracker 3.40 0067  02.08.2006

@<TRIPOS>MOLECULE
ASD01208595
  79   80    0    0    0
SMALL
NO_CHARGES


@<TRIPOS>ATOM
   1 N1             0.0890     1.6334    -1.8161 N.pl3   
   2 C2            -0.0269     0.2617    -1.7892 C.2     
   3 C3             1.1906    -0.2614    -1.4023 C.2     
   4 C4             2.0574     0.8094    -1.1915 C.2     
   5 C5             1.3599     1.9691    -1.4517 C.2     
   6 C6            -1.2314    -0.5079    -2.1144 C.2     
   7 O7            -1.2117    -1.7233    -2.0540 O.2     
   8 N8            -2.3606     0.1305    -2.4802 N.am    
   9 C9             1.8973     3.3426    -1.3528 C.ar    
  10 C10            1.0812     4.4362    -1.6455 C.ar    
  11 C11            1.5887     5.7212    -1.5517 C.ar    
  12 C12            2.9069     5.9223    -1.1676 C.ar    
  13 C13            3.7217     4.8381    -0.8757 C.ar    
  14 C14            3.2203     3.5497    -0.9611 C.ar    
  15 O15            5.0119     5.0406    -0.5001 O.3     
  16 Si16           5.1971     5.3694     1.0867 Si      
  17 C17            4.9109     2.6690     1.6679 C.3     
  18 C18            4.3760     4.0367     2.0969 C.3     
  19 C19            4.6796     4.2608     3.5797 C.3     
  20 C20            7.6872     4.1414     1.0323 C.3     
  21 C21            7.0125     5.4325     1.5001 C.3     
  22 C22            7.6551     6.6283     0.7944 C.3     
  23 C23            4.8607     7.4765     2.8640 C.3     
  24 C24            4.4142     7.0146     1.4755 C.3     
  25 C25            4.8479     8.0453     0.4312 C.3     
  26 O26            0.7948     6.7868    -1.8365 O.3     
  27 C27           -1.0042     7.6912    -3.1731 C.3     
  28 C28           -0.5125     6.5055    -2.3405 C.3     
  29 C29           -1.4706     6.2715    -1.1707 C.3     
  30 O30           -1.1622     8.8332    -2.3287 O.3     
  31 C31           -1.6203    10.0019    -3.0115 C.3     
  32 C32           -4.8023     0.2310    -2.5770 C.3     
  33 C33           -3.5644    -0.6387    -2.8051 C.3     
  34 C34           -3.5107    -1.0750    -4.2706 C.3     
  35 O35           -4.7925     1.3244    -3.4970 O.3     
  36 H36           -0.6141     2.2564    -2.0578 H       
  37 H37            1.4278    -1.3084    -1.2842 H       
  38 H38            3.0893     0.7424    -0.8800 H       
  39 H39           -2.3763     1.0992    -2.5283 H       
  40 H40            0.0554     4.2804    -1.9452 H       
  41 H41            3.2998     6.9258    -1.0961 H       
  42 H42            3.8539     2.7063    -0.7294 H       
  43 H43            5.9412     2.5593     2.0064 H       
  44 H44            4.2976     1.8840     2.1102 H       
  45 H45            4.8750     2.5894     0.5814 H       
  46 H46            3.2983     4.0718     1.9373 H       
  47 H47            4.1600     5.1543     3.9259 H       
  48 H48            4.3415     3.3984     4.1541 H       
  49 H49            5.7534     4.3894     3.7153 H       
  50 H50            7.4503     3.9673    -0.0173 H       
  51 H51            8.7670     4.2321     1.1509 H       
  52 H52            7.3251     3.3050     1.6301 H       
  53 H53            7.1363     5.5372     2.5780 H       
  54 H54            7.3277     7.5514     1.2728 H       
  55 H55            8.7402     6.5495     0.8612 H       
  56 H56            7.3551     6.6360    -0.2535 H       
  57 H57            5.9476     7.4274     2.9312 H       
  58 H58            4.5325     8.5028     3.0285 H       
  59 H59            4.4203     6.8283     3.6216 H       
  60 H60            3.3290     6.9138     1.4576 H       
  61 H61            4.7483     7.6163    -0.5659 H       
  62 H62            4.2169     8.9306     0.5106 H       
  63 H63            5.8874     8.3233     0.6050 H       
  64 H64           -0.2763     7.9140    -3.9532 H       
  65 H65           -1.9618     7.4420    -3.6301 H       
  66 H66           -0.4768     5.6129    -2.9650 H       
  67 H67           -2.4677     6.0569    -1.5552 H       
  68 H68           -1.1203     5.4268    -0.5776 H       
  69 H69           -1.5063     7.1641    -0.5462 H       
  70 H70           -0.9052    10.2727    -3.7883 H       
  71 H71           -2.5908     9.8007    -3.4652 H       
  72 H72           -1.7145    10.8239    -2.3019 H       
  73 H73           -5.7002    -0.3670    -2.7329 H       
  74 H74           -4.7939     0.6146    -1.5567 H       
  75 H75           -3.6163    -1.5197    -2.1654 H       
  76 H76           -4.4063    -1.6472    -4.5124 H       
  77 H77           -3.4587    -0.1940    -4.9103 H       
  78 H78           -2.6287    -1.6945    -4.4332 H       
  79 H79           -5.5501     1.9189    -3.4094 H       
@<TRIPOS>BOND
   1    1    2 1
   2    1    5 1
   3    1   36 1
   4    2    3 2
   5    2    6 1
   6    3    4 1
   7    3   37 1
   8    4    5 2
   9    4   38 1
  10    5    9 1
  11    6    7 2
  12    6    8 am
  13    8   33 1
  14    8   39 1
  15    9   10 ar
  16    9   14 ar
  17   10   11 ar
  18   10   40 1
  19   11   12 ar
  20   11   26 1
  21   12   13 ar
  22   12   41 1
  23   13   14 ar
  24   13   15 1
  25   14   42 1
  26   15   16 1
  27   16   18 1
  28   16   21 1
  29   16   24 1
  30   17   18 1
  31   17   43 1
  32   17   44 1
  33   17   45 1
  34   18   19 1
  35   18   46 1
  36   19   47 1
  37   19   48 1
  38   19   49 1
  39   20   21 1
  40   20   50 1
  41   20   51 1
  42   20   52 1
  43   21   22 1
  44   21   53 1
  45   22   54 1
  46   22   55 1
  47   22   56 1
  48   23   24 1
  49   23   57 1
  50   23   58 1
  51   23   59 1
  52   24   25 1
  53   24   60 1
  54   25   61 1
  55   25   62 1
  56   25   63 1
  57   26   28 1
  58   27   28 1
  59   27   30 1
  60   27   64 1
  61   27   65 1
  62   28   29 1
  63   28   66 1
  64   29   67 1
  65   29   68 1
  66   29   69 1
  67   30   31 1
  68   31   70 1
  69   31   71 1
  70   31   72 1
  71   32   33 1
  72   32   35 1
  73   32   73 1
  74   32   74 1
  75   33   34 1
  76   33   75 1
  77   34   76 1
  78   34   77 1
  79   34   78 1
  80   35   79 1

#	End of record

