#	Name: ASD01850008
#	Creating user name:	WinNT
#	Creation time:	15. 06. 2019 19:38

#	Modifying user name:	WinNT
#	Modification time:	15. 06. 2019 19:38

#	Program:	/corina/corina34_cracker 3.40 0067  02.08.2006

@<TRIPOS>MOLECULE
ASD01850008
  45   49    0    0    0
SMALL
NO_CHARGES


@<TRIPOS>ATOM
   1 Cl1            0.0226     0.0370    -0.4665 Cl      
   2 C2            -0.0130     1.7487    -0.1792 C.ar    
   3 C3             1.1671     2.4353     0.0507 C.ar    
   4 C4             1.1467     3.8003     0.2811 C.ar    
   5 Cl5            2.6315     4.6526     0.5685 Cl      
   6 C6            -0.0524     4.4852     0.2823 C.ar    
   7 C7            -1.2451     3.7987     0.0506 C.ar    
   8 C8            -1.2176     2.4236    -0.1862 C.ar    
   9 C9            -2.5323     4.5262     0.0510 C.2     
  10 O10           -2.5452     5.7386     0.1367 O.2     
  11 N11           -3.6914     3.8449    -0.0438 N.am    
  12 C12           -3.8477     2.3926    -0.2716 C.3     
  13 C13           -5.3737     2.1491    -0.3574 C.3     
  14 N14           -5.9023     3.4737    -0.7251 N.am    
  15 C15           -5.0470     4.3983     0.0652 C.3     
  16 C16           -5.4995     4.4607     1.5013 C.ar    
  17 C17           -4.5821     4.7096     2.5049 C.ar    
  18 C18           -4.9972     4.7667     3.8222 C.ar    
  19 C19           -6.3298     4.5754     4.1359 C.ar    
  20 C20           -7.2474     4.3275     3.1322 C.ar    
  21 C21           -6.8330     4.2746     1.8145 C.ar    
  22 C22           -5.1719     5.7312    -0.6174 C.ar    
  23 C23           -4.4991     6.9252    -0.5036 C.ar    
  24 C24           -4.8669     8.0061    -1.2873 C.ar    
  25 C25           -5.9109     7.8902    -2.1876 C.ar    
  26 C26           -6.5903     6.6957    -2.3143 C.ar    
  27 C27           -6.2243     5.6016    -1.5325 C.ar    
  28 C28           -6.7523     4.2177    -1.4344 C.2     
  29 O29           -7.7941     3.8273    -1.9241 O.2     
  30 H30            2.1073     1.9038     0.0508 H       
  31 H31           -0.0671     5.5500     0.4624 H       
  32 H32           -2.1375     1.8870    -0.3661 H       
  33 H33           -3.3666     2.1035    -1.2059 H       
  34 H34           -3.4227     1.8324     0.5613 H       
  35 H35           -5.6038     1.4147    -1.1293 H       
  36 H36           -5.7680     1.8314     0.6079 H       
  37 H37           -3.5409     4.8590     2.2599 H       
  38 H38           -4.2803     4.9605     4.6064 H       
  39 H39           -6.6540     4.6194     5.1651 H       
  40 H40           -8.2885     4.1777     3.3773 H       
  41 H41           -7.5499     4.0809     1.0303 H       
  42 H42           -3.6835     7.0201     0.1979 H       
  43 H43           -4.3371     8.9427    -1.1952 H       
  44 H44           -6.1955     8.7379    -2.7934 H       
  45 H45           -7.4048     6.6090    -3.0182 H       
@<TRIPOS>BOND
   1    1    2 1
   2    2    3 ar
   3    2    8 ar
   4    3    4 ar
   5    3   30 1
   6    4    5 1
   7    4    6 ar
   8    6    7 ar
   9    6   31 1
  10    7    8 ar
  11    7    9 1
  12    8   32 1
  13    9   10 2
  14    9   11 am
  15   11   12 1
  16   11   15 1
  17   12   13 1
  18   12   33 1
  19   12   34 1
  20   13   14 1
  21   13   35 1
  22   13   36 1
  23   14   15 1
  24   14   28 am
  25   15   16 1
  26   15   22 1
  27   16   17 ar
  28   16   21 ar
  29   17   18 ar
  30   17   37 1
  31   18   19 ar
  32   18   38 1
  33   19   20 ar
  34   19   39 1
  35   20   21 ar
  36   20   40 1
  37   21   41 1
  38   22   23 ar
  39   22   27 ar
  40   23   24 ar
  41   23   42 1
  42   24   25 ar
  43   24   43 1
  44   25   26 ar
  45   25   44 1
  46   26   27 ar
  47   26   45 1
  48   27   28 1
  49   28   29 2

#	End of record

