#	Name: ASD03330571
#	Creating user name:	WinNT
#	Creation time:	15. 06. 2019 20:37

#	Modifying user name:	WinNT
#	Modification time:	15. 06. 2019 20:37

#	Program:	/corina/corina34_cracker 3.40 0067  02.08.2006

@<TRIPOS>MOLECULE
ASD03330571
  63   65    0    0    0
SMALL
NO_CHARGES


@<TRIPOS>ATOM
   1 C1             0.2011     2.1424    -1.0505 C.2     
   2 N2             0.2993     0.8973    -1.5731 N.pl3   
   3 C3             1.4562     2.5246    -0.6837 C.2     
   4 N4             2.3017     1.5202    -1.0015 N.2     
   5 C5             1.6157     0.5406    -1.5418 C.2     
   6 C6             2.1762    -0.7373    -2.0338 C.ar    
   7 C7             1.8253     3.8044    -0.0531 C.2     
   8 O8             0.9688     4.6344     0.1849 O.2     
   9 C9             3.4790     5.3273     0.8866 C.3     
  10 N10            3.1121     4.0551     0.2598 N.am    
  11 C11            3.2838     5.2249     2.4007 C.3     
  12 C12            4.1034     4.0520     2.9424 C.3     
  13 C13            3.7502     6.5224     3.0639 C.3     
  14 C14            1.8027     4.9979     2.7097 C.3     
  15 C15            4.9228     5.6374     0.5861 C.2     
  16 N16            5.3767     6.9020     0.6923 N.am    
  17 O17            5.6763     4.7490     0.2486 O.2     
  18 C18            6.7515     7.2221     0.3004 C.3     
  19 C19           -0.8214     0.0906    -2.0641 C.3     
  20 C20           -1.7048     0.9549    -2.9691 C.3     
  21 C21           -2.7475     1.6836    -2.1274 C.3     
  22 N22           -2.2101     2.0303    -0.8099 N.3     
  23 C23           -1.0664     2.9473    -0.9243 C.3     
  24 C24           -3.2554     2.5975     0.0523 C.3     
  25 C25            3.4746    -0.7831    -2.5408 C.ar    
  26 C26            3.9920    -1.9802    -2.9989 C.ar    
  27 C27            3.2228    -3.1316    -2.9546 C.ar    
  28 C28            1.9344    -3.0902    -2.4529 C.ar    
  29 C29            1.4096    -1.9023    -1.9871 C.ar    
  30 F30            5.2494    -2.0274    -3.4909 F       
  31 C31            3.7918    -4.4341    -3.4554 C.3     
  32 H32            2.8468     6.1226     0.4917 H       
  33 H33            3.7952     3.3931     0.0699 H       
  34 H34            5.1586     4.2138     2.7222 H       
  35 H35            3.9644     3.9791     4.0210 H       
  36 H36            3.7712     3.1277     2.4698 H       
  37 H37            3.1822     7.3610     2.6610 H       
  38 H38            3.5896     6.4585     4.1401 H       
  39 H39            4.8110     6.6722     2.8631 H       
  40 H40            1.4704     4.0736     2.2372 H       
  41 H41            1.6636     4.9250     3.7884 H       
  42 H42            1.2188     5.8335     2.3238 H       
  43 H43            4.7931     7.6001     1.0283 H       
  44 H44            7.4467     6.6411     0.9063 H       
  45 H45            6.8954     6.9783    -0.7522 H       
  46 H46            6.9353     8.2853     0.4555 H       
  47 H47           -0.4385    -0.7577    -2.6315 H       
  48 H48           -1.4082    -0.2701    -1.2194 H       
  49 H49           -1.0853     1.6846    -3.4906 H       
  50 H50           -2.2073     0.3198    -3.6987 H       
  51 H51           -3.0491     2.5958    -2.6422 H       
  52 H52           -3.6184     1.0405    -2.0007 H       
  53 H53           -1.0124     3.5750    -0.0349 H       
  54 H54           -1.1892     3.5745    -1.8073 H       
  55 H55           -4.0550     1.8681     0.1819 H       
  56 H56           -2.8294     2.8461     1.0243 H       
  57 H57           -3.6576     3.4993    -0.4094 H       
  58 H58            4.0741     0.1145    -2.5756 H       
  59 H59            1.3395    -3.9910    -2.4213 H       
  60 H60            0.4036    -1.8723    -1.5955 H       
  61 H61            4.2890    -4.9525    -2.6355 H       
  62 H62            2.9862    -5.0572    -3.8437 H       
  63 H63            4.5118    -4.2348    -4.2491 H       
@<TRIPOS>BOND
   1    1    2 1
   2    1    3 2
   3    1   23 1
   4    2   19 1
   5    2    5 1
   6    3    4 1
   7    3    7 1
   8    4    5 2
   9    5    6 1
  10    6   25 ar
  11    6   29 ar
  12    7    8 2
  13    7   10 am
  14    9   10 1
  15    9   11 1
  16    9   15 1
  17    9   32 1
  18   10   33 1
  19   11   12 1
  20   11   13 1
  21   11   14 1
  22   12   34 1
  23   12   35 1
  24   12   36 1
  25   13   37 1
  26   13   38 1
  27   13   39 1
  28   14   40 1
  29   14   41 1
  30   14   42 1
  31   15   16 am
  32   15   17 2
  33   16   18 1
  34   16   43 1
  35   18   44 1
  36   18   45 1
  37   18   46 1
  38   19   20 1
  39   19   47 1
  40   19   48 1
  41   20   21 1
  42   20   49 1
  43   20   50 1
  44   21   22 1
  45   21   51 1
  46   21   52 1
  47   22   23 1
  48   22   24 1
  49   23   53 1
  50   23   54 1
  51   24   55 1
  52   24   56 1
  53   24   57 1
  54   25   26 ar
  55   25   58 1
  56   26   27 ar
  57   26   30 1
  58   27   28 ar
  59   27   31 1
  60   28   29 ar
  61   28   59 1
  62   29   60 1
  63   31   61 1
  64   31   62 1
  65   31   63 1

#	End of record

