#	Name: ASD03470003
#	Creating user name:	WinNT
#	Creation time:	15. 06. 2019 20:42

#	Modifying user name:	WinNT
#	Modification time:	15. 06. 2019 20:42

#	Program:	/corina/corina34_cracker 3.40 0067  02.08.2006

@<TRIPOS>MOLECULE
ASD03470003
 143  141    0    0    0
SMALL
NO_CHARGES


@<TRIPOS>ATOM
   1 O1             3.2761    -8.6521    20.9425 O.2     
   2 C2             2.8439    -7.5450    21.1852 C.2     
   3 N3             3.0600    -6.5322    20.3210 N.2     
   4 C4             2.5974    -5.3472    20.5807 C.2     
   5 C5             2.8389    -4.2157    19.6152 C.3     
   6 C6             3.6174    -3.1022    20.3188 C.3     
   7 C7             3.9709    -2.0096    19.3077 C.3     
   8 C8             4.7494    -0.8962    20.0114 C.3     
   9 C9             5.1029     0.1964    19.0003 C.3     
  10 C10            5.7709     1.3660    19.7260 C.3     
  11 C11            6.0637    -0.3697    17.9528 C.3     
  12 C12            1.4969    -3.6684    19.1249 C.3     
  13 N13            6.0018     2.4634    18.7771 N.3     
  14 C14            6.6434     3.6064    19.4402 C.3     
  15 C15            6.8672     4.7267    18.4225 C.3     
  16 C16            7.5355     5.9172    19.1131 C.3     
  17 C17            7.7592     7.0375    18.0953 C.3     
  18 C18            8.4276     8.2280    18.7859 C.3     
  19 N19            8.6418     9.3006    17.8114 N.am    
  20 C20            9.2207    10.4552    18.1965 C.2     
  21 O21            9.5644    10.6061    19.3497 O.2     
  22 C22            9.4411    11.5586    17.1940 C.3     
  23 N23           10.0810    12.6985    17.8553 N.am    
  24 C24            9.9324    13.9400    17.3521 C.2     
  25 O25            9.2688    14.1134    16.3518 O.2     
  26 C26           10.5906    15.1126    18.0323 C.3     
  27 N27           10.2797    16.3411    17.2973 N.am    
  28 C28           11.1084    17.4011    17.3752 C.2     
  29 O29           12.1116    17.3379    18.0539 O.2     
  30 C30           10.7886    18.6648    16.6192 C.3     
  31 N31           11.8349    19.6600    16.8665 N.am    
  32 C32           11.7286    20.5039    17.9119 C.2     
  33 O33           10.7157    20.5189    18.5787 O.2     
  34 C34           12.8685    21.4290    18.2523 C.3     
  35 N35           12.3719    22.8046    18.3391 N.am    
  36 C36           13.1930    23.8363    18.0606 C.2     
  37 O37           14.3148    23.6251    17.6508 O.2     
  38 C38           12.7173    25.2526    18.2582 C.3     
  39 N39           13.7866    26.1830    17.8881 N.am    
  40 C40           14.7678    26.4663    18.7675 C.2     
  41 O41           14.8169    25.8833    19.8299 O.2     
  42 C42           15.8039    27.5076    18.4309 C.3     
  43 N43           16.7525    27.6292    19.5407 N.2     
  44 C44           16.4200    28.2778    20.6055 C.2     
  45 O45           15.6803    29.4019    20.5073 O.3     
  46 O46           15.4744    29.8631    19.1278 O.3     
  47 C47           14.6910    31.0537    19.0238 C.3     
  48 C48           16.8578    27.7797    21.9587 C.3     
  49 C49           16.5527    27.0908    17.1634 C.3     
  50 C50           17.5026    28.1880    16.7574 C.2     
  51 O51           17.5735    29.1995    17.4144 O.2     
  52 O52           18.2700    28.0415    15.6659 O.3     
  53 C53           11.4924    25.5068    17.3773 C.3     
  54 C54           10.9858    26.9063    17.6132 C.2     
  55 O55           11.5974    27.6577    18.3428 O.2     
  56 N56            9.8530    27.3229    17.0135 N.am    
  57 C57           13.4736    21.0196    19.5966 C.3     
  58 C58           14.1172    19.6376    19.4664 C.3     
  59 C59           15.2394    19.6935    18.4278 C.3     
  60 C60           14.6945    19.2144    20.8186 C.3     
  61 C61           10.7190    18.3594    15.1216 C.3     
  62 C62           10.3566    19.6140    14.3693 C.2     
  63 O63           10.0749    20.6211    14.9745 O.2     
  64 O64           10.3468    19.6125    13.0271 O.3     
  65 C65           10.0683    15.2297    19.4656 C.3     
  66 O66            8.6416    15.3087    19.4477 O.3     
  67 C67           10.3426    11.0510    16.0668 C.3     
  68 H68            2.2821    -7.3712    22.0911 H       
  69 H69            2.0395    -5.1725    21.4888 H       
  70 H70            3.4151    -4.5804    18.7648 H       
  71 H71            3.0048    -2.6771    21.1139 H       
  72 H72            4.5328    -3.5125    20.7453 H       
  73 H73            4.5835    -2.4348    18.5127 H       
  74 H74            3.0555    -1.5994    18.8812 H       
  75 H75            4.1368    -0.4711    20.8064 H       
  76 H76            5.6647    -1.3064    20.4379 H       
  77 H77            4.1942     0.5447    18.5093 H       
  78 H78            5.1226     1.7121    20.5310 H       
  79 H79            6.7238     1.0389    20.1420 H       
  80 H80            6.9724    -0.7180    18.4439 H       
  81 H81            5.5878    -1.2029    17.4358 H       
  82 H82            6.3156     0.4087    17.2325 H       
  83 H83            1.6716    -2.8499    18.4265 H       
  84 H84            0.9423    -4.4616    18.6236 H       
  85 H85            0.9208    -3.3036    19.9753 H       
  86 H86            6.5471     2.1504    17.9880 H       
  87 H87            6.0012     3.9681    20.2433 H       
  88 H88            7.6024     3.2949    19.8543 H       
  89 H89            7.5094     4.3651    17.6194 H       
  90 H90            5.9082     5.0383    18.0084 H       
  91 H91            6.8933     6.2788    19.9161 H       
  92 H92            8.4944     5.6056    19.5271 H       
  93 H93            8.4015     6.6758    17.2923 H       
  94 H94            6.8003     7.3490    17.6813 H       
  95 H95            7.7853     8.5896    19.5890 H       
  96 H96            9.3865     7.9164    19.2000 H       
  97 H97            8.3669     9.1799    16.8890 H       
  98 H98            8.4822    11.8702    16.7799 H       
  99 H99           10.6117    12.5598    18.6553 H       
 100 H100          11.6702    14.9632    18.0501 H       
 101 H101           9.4774    16.3916    16.7545 H       
 102 H102           9.8283    19.0561    16.9552 H       
 103 H103          12.6042    19.7114    16.2779 H       
 104 H104          13.6314    21.3665    17.4763 H       
 105 H105          11.4520    22.9727    18.5970 H       
 106 H106          12.4503    25.4035    19.3042 H       
 107 H107          13.7884    26.5952    17.0100 H       
 108 H108          15.3142    28.4670    18.2646 H       
 109 H109          13.7053    30.8788    19.4551 H       
 110 H110          15.1852    31.8620    19.5628 H       
 111 H111          14.5849    31.3283    17.9743 H       
 112 H112          17.8226    28.2187    22.2128 H       
 113 H113          16.1196    28.0665    22.7077 H       
 114 H114          16.9478    26.6937    21.9345 H       
 115 H115          17.1144    26.1770    17.3571 H       
 116 H116          15.8372    26.9140    16.3603 H       
 117 H117          18.8637    28.7722    15.4454 H       
 118 H118          11.7686    25.3922    16.3292 H       
 119 H119          10.7101    24.7902    17.6273 H       
 120 H120           9.3638    26.7219    16.4300 H       
 121 H121           9.5268    28.2237    17.1653 H       
 122 H122          14.2305    21.7466    19.8909 H       
 123 H123          12.6893    20.9853    20.3528 H       
 124 H124          13.3651    18.9149    19.1501 H       
 125 H125          15.6493    18.6941    18.2817 H       
 126 H126          14.8421    20.0650    17.4833 H       
 127 H127          16.0263    20.3612    18.7787 H       
 128 H128          13.8950    19.1746    21.5585 H       
 129 H129          15.1530    18.2299    20.7259 H       
 130 H130          15.4466    19.9372    21.1349 H       
 131 H131          11.6885    17.9977    14.7791 H       
 132 H132           9.9620    17.5962    14.9412 H       
 133 H133          10.1080    20.4408    12.5889 H       
 134 H134          10.3766    14.3544    20.0373 H       
 135 H135          10.4762    16.1282    19.9286 H       
 136 H136           8.2409    15.3850    20.3245 H       
 137 H137          11.3016    10.7394    16.4808 H       
 138 H138           9.8665    10.2029    15.5748 H       
 139 H139          10.5020    11.8491    15.3417 H       
 140 N140          24.4022    37.8709    28.4821 N.3     
 141 H141          24.4158    36.8620    28.4765 H       
 142 H142          25.3391    38.2453    28.4751 H       
 143 H143          23.8637    38.2295    27.7077 H       
@<TRIPOS>BOND
   1    1    2 2
   2    2    3 1
   3    2   68 1
   4    3    4 2
   5    4    5 1
   6    4   69 1
   7    5    6 1
   8    5   12 1
   9    5   70 1
  10    6    7 1
  11    6   71 1
  12    6   72 1
  13    7    8 1
  14    7   73 1
  15    7   74 1
  16    8    9 1
  17    8   75 1
  18    8   76 1
  19    9   10 1
  20    9   11 1
  21    9   77 1
  22   10   13 1
  23   10   78 1
  24   10   79 1
  25   11   80 1
  26   11   81 1
  27   11   82 1
  28   12   83 1
  29   12   84 1
  30   12   85 1
  31   13   14 1
  32   13   86 1
  33   14   15 1
  34   14   87 1
  35   14   88 1
  36   15   16 1
  37   15   89 1
  38   15   90 1
  39   16   17 1
  40   16   91 1
  41   16   92 1
  42   17   18 1
  43   17   93 1
  44   17   94 1
  45   18   19 1
  46   18   95 1
  47   18   96 1
  48   19   20 am
  49   19   97 1
  50   20   21 2
  51   20   22 1
  52   22   23 1
  53   22   67 1
  54   22   98 1
  55   23   24 am
  56   23   99 1
  57   24   25 2
  58   24   26 1
  59   26   27 1
  60   26   65 1
  61   26  100 1
  62   27   28 am
  63   27  101 1
  64   28   29 2
  65   28   30 1
  66   30   31 1
  67   30   61 1
  68   30  102 1
  69   31   32 am
  70   31  103 1
  71   32   33 2
  72   32   34 1
  73   34   35 1
  74   34   57 1
  75   34  104 1
  76   35   36 am
  77   35  105 1
  78   36   37 2
  79   36   38 1
  80   38   39 1
  81   38   53 1
  82   38  106 1
  83   39   40 am
  84   39  107 1
  85   40   41 2
  86   40   42 1
  87   42   43 1
  88   42   49 1
  89   42  108 1
  90   43   44 2
  91   44   45 1
  92   44   48 1
  93   45   46 1
  94   46   47 1
  95   47  109 1
  96   47  110 1
  97   47  111 1
  98   48  112 1
  99   48  113 1
 100   48  114 1
 101   49   50 1
 102   49  115 1
 103   49  116 1
 104   50   51 2
 105   50   52 1
 106   52  117 1
 107   53   54 1
 108   53  118 1
 109   53  119 1
 110   54   55 2
 111   54   56 am
 112   56  120 1
 113   56  121 1
 114   57   58 1
 115   57  122 1
 116   57  123 1
 117   58   59 1
 118   58   60 1
 119   58  124 1
 120   59  125 1
 121   59  126 1
 122   59  127 1
 123   60  128 1
 124   60  129 1
 125   60  130 1
 126   61   62 1
 127   61  131 1
 128   61  132 1
 129   62   63 2
 130   62   64 1
 131   64  133 1
 132   65   66 1
 133   65  134 1
 134   65  135 1
 135   66  136 1
 136   67  137 1
 137   67  138 1
 138   67  139 1
 139  140  141 1
 140  140  142 1
 141  140  143 1

#	End of record

