#	Name: ASD01510129
#	Creating user name:	WinNT
#	Creation time:	15. 06. 2019 19:21

#	Modifying user name:	WinNT
#	Modification time:	15. 06. 2019 19:21

#	Program:	/corina/corina34_cracker 3.40 0067  02.08.2006

@<TRIPOS>MOLECULE
ASD01510129
  61   65    0    0    0
SMALL
NO_CHARGES


@<TRIPOS>ATOM
   1 C1            -0.1407     1.3891     0.0632 C.3     
   2 O2            -0.0839    -0.0388     0.0605 O.3     
   3 C3             0.4879    -0.5955    -1.1249 C.3     
   4 C4             1.1776    -1.9185    -0.7857 C.3     
   5 O5             0.2152    -2.8769    -0.3181 O.3     
   6 C6             0.7888    -3.6793     0.7206 C.3     
   7 C7             2.2241    -3.1671     0.9671 C.3     
   8 C8             2.1620    -1.7246     0.3950 C.3     
   9 O9             1.6361    -0.8104     1.3592 O.3     
  10 O10            2.5243    -3.1477     2.3640 O.3     
  11 N11            0.8270    -5.0824     0.3009 N.pl3   
  12 C12            0.4621    -6.1636     1.0553 C.2     
  13 N13            0.6250    -7.2627     0.3618 N.2     
  14 C14            1.1009    -6.9516    -0.8699 C.ar    
  15 C15            1.2309    -5.5545    -0.9266 C.ar    
  16 N16            1.6832    -4.9926    -2.0424 N.ar    
  17 C17            2.0063    -5.7318    -3.0829 C.ar    
  18 N18            1.9006    -7.0481    -3.0768 N.ar    
  19 C19            1.4549    -7.6974    -2.0063 C.ar    
  20 N20            1.3479    -9.0788    -2.0089 N.pl3   
  21 N21           -0.0069    -6.1051     2.3534 N.pl3   
  22 C22           -1.3656    -5.8803     2.5965 C.ar    
  23 C23           -1.8554    -5.9185     3.8955 C.ar    
  24 C24           -3.1979    -5.6963     4.1335 C.ar    
  25 C25           -4.0549    -5.4357     3.0794 C.ar    
  26 C26           -3.5698    -5.3973     1.7824 C.ar    
  27 C27           -2.2265    -5.6129     1.5398 C.ar    
  28 Cl28          -4.6485    -5.0711     0.4620 Cl      
  29 Cl29          -5.7414    -5.1569     3.3823 Cl      
  30 C30            0.9191    -6.2785     3.4753 C.3     
  31 C31           -0.5991    -0.8413    -2.1393 C.ar    
  32 C32           -0.3351    -0.6696    -3.4866 C.ar    
  33 C33           -1.3253    -0.8933    -4.4207 C.ar    
  34 C34           -2.5963    -1.2938    -4.0036 C.ar    
  35 C35           -2.8557    -1.4652    -2.6424 C.ar    
  36 C36           -1.8547    -1.2431    -1.7195 C.ar    
  37 C37           -3.6292    -1.5274    -4.9676 C.1     
  38 N38           -4.4486    -1.7127    -5.7323 N.1     
  39 H39            0.8677     1.7929    -0.0278 H       
  40 H40           -0.7459     1.7302    -0.7766 H       
  41 H41           -0.5870     1.7332     0.9962 H       
  42 H42            1.2189     0.1001    -1.5369 H       
  43 H43            1.7031    -2.3052    -1.6588 H       
  44 H44            0.1993    -3.5808     1.6322 H       
  45 H45            2.9501    -3.7698     0.4214 H       
  46 H46            3.1405    -1.3998     0.0413 H       
  47 H47            2.1668    -0.7396     2.1645 H       
  48 H48            3.4152    -2.8333     2.5706 H       
  49 H49            2.3708    -5.2435    -3.9746 H       
  50 H50            1.5997    -9.5832    -2.7983 H       
  51 H51            1.0212    -9.5415    -1.2215 H       
  52 H52           -1.1872    -6.1223     4.7191 H       
  53 H53           -3.5788    -5.7264     5.1437 H       
  54 H54           -1.8482    -5.5829     0.5286 H       
  55 H55            1.2472    -5.3014     3.8300 H       
  56 H56            0.4153    -6.8082     4.2837 H       
  57 H57            1.7840    -6.8549     3.1468 H       
  58 H58            0.6483    -0.3595    -3.8078 H       
  59 H59           -1.1181    -0.7586    -5.4720 H       
  60 H60           -3.8367    -1.7744    -2.3130 H       
  61 H61           -2.0540    -1.3752    -0.6663 H       
@<TRIPOS>BOND
   1    1    2 1
   2    1   39 1
   3    1   40 1
   4    1   41 1
   5    2    3 1
   6    3   31 1
   7    3    4 1
   8    3   42 1
   9    4    5 1
  10    4    8 1
  11    4   43 1
  12    5    6 1
  13    6    7 1
  14    6   11 1
  15    6   44 1
  16    7    8 1
  17    7   10 1
  18    7   45 1
  19    8    9 1
  20    8   46 1
  21    9   47 1
  22   10   48 1
  23   11   12 1
  24   11   15 1
  25   12   13 2
  26   12   21 1
  27   13   14 1
  28   14   15 ar
  29   14   19 ar
  30   15   16 ar
  31   16   17 ar
  32   17   18 ar
  33   17   49 1
  34   18   19 ar
  35   19   20 1
  36   20   50 1
  37   20   51 1
  38   21   22 1
  39   21   30 1
  40   22   23 ar
  41   22   27 ar
  42   23   24 ar
  43   23   52 1
  44   24   25 ar
  45   24   53 1
  46   25   26 ar
  47   25   29 1
  48   26   27 ar
  49   26   28 1
  50   27   54 1
  51   30   55 1
  52   30   56 1
  53   30   57 1
  54   31   32 ar
  55   31   36 ar
  56   32   33 ar
  57   32   58 1
  58   33   34 ar
  59   33   59 1
  60   34   35 ar
  61   34   37 1
  62   35   36 ar
  63   35   60 1
  64   36   61 1
  65   37   38 3

#	End of record

