#	Name: ASD07930757
#	Creating user name:	WinNT
#	Creation time:	15. 06. 2019 21:13

#	Modifying user name:	WinNT
#	Modification time:	15. 06. 2019 21:13

#	Program:	/corina/corina34_cracker 3.40 0067  02.08.2006

@<TRIPOS>MOLECULE
ASD07930757
  49   52    0    0    0
SMALL
NO_CHARGES


@<TRIPOS>ATOM
   1 C1             2.9695    -1.1760    -1.4923 C.3     
   2 N2             2.4557    -3.0909     0.7393 N.2     
   3 N3             0.4222    -3.4511    -0.3546 N.pl3   
   4 C4            -0.9005    -2.8248    -0.2586 C.3     
   5 C5            -0.9805    -1.6568    -1.2513 C.3     
   6 S6             0.3853    -0.5078    -0.8926 S.o2    
   7 N7             1.7085    -1.5187    -0.8302 N.am    
   8 C8             1.5567    -2.7014    -0.1204 C.2     
   9 C9            -1.1166    -2.3027     1.1632 C.3     
  10 O10            0.6358     0.3407    -2.0046 O.2     
  11 O11            0.2722     0.0147     0.4240 O.2     
  12 C12           -1.9634    -3.8404    -0.5898 C.ar    
  13 C13           -2.7981    -3.6365    -1.6684 C.ar    
  14 C14           -3.7819    -4.5782    -1.9743 C.ar    
  15 C15           -3.9152    -5.7218    -1.1859 C.ar    
  16 C16           -3.0751    -5.9160    -0.1092 C.ar    
  17 C17           -2.0967    -4.9806     0.1869 C.ar    
  18 F18           -1.2764    -5.1757     1.2425 F       
  19 C19           -4.6800    -4.3644    -3.1295 C.2     
  20 N20           -5.6818    -5.2206    -3.5247 N.pl3   
  21 C21           -6.3188    -4.7121    -4.6353 C.ar    
  22 C22           -5.6978    -3.4897    -4.9547 C.ar    
  23 C23           -4.6464    -3.2915    -3.9583 C.2     
  24 C24           -7.3750    -5.1646    -5.4195 C.ar    
  25 C25           -7.7998    -4.4152    -6.4949 C.ar    
  26 C26           -7.1842    -3.2104    -6.8065 C.ar    
  27 C27           -6.1458    -2.7458    -6.0503 C.ar    
  28 C28           -8.9443    -4.9087    -7.3420 C.3     
  29 H29            3.6027    -0.6188    -0.8019 H       
  30 H30            3.4801    -2.0896    -1.7967 H       
  31 H31            2.7641    -0.5645    -2.3710 H       
  32 H32            3.2471    -2.5511     0.8916 H       
  33 H33            0.4992    -4.3918    -0.5784 H       
  34 H34           -0.8861    -2.0331    -2.2699 H       
  35 H35           -1.9340    -1.1415    -1.1363 H       
  36 H36           -0.3484    -1.5668     1.4007 H       
  37 H37           -2.0997    -1.8373     1.2338 H       
  38 H38           -1.0557    -3.1319     1.8679 H       
  39 H39           -2.6909    -2.7495    -2.2752 H       
  40 H40           -4.6750    -6.4533    -1.4181 H       
  41 H41           -3.1777    -6.8006     0.5018 H       
  42 H42           -5.9056    -6.0569    -3.0873 H       
  43 H43           -3.9675    -2.4537    -3.8981 H       
  44 H44           -7.8604    -6.1007    -5.1862 H       
  45 H45           -7.5294    -2.6357    -7.6531 H       
  46 H46           -5.6719    -1.8076    -6.2985 H       
  47 H47           -9.8840    -4.5317    -6.9384 H       
  48 H48           -8.8193    -4.5528    -8.3646 H       
  49 H49           -8.9575    -5.9987    -7.3357 H       
@<TRIPOS>BOND
   1    1    7 1
   2    1   29 1
   3    1   30 1
   4    1   31 1
   5    2    8 2
   6    2   32 1
   7    3    4 1
   8    3    8 1
   9    3   33 1
  10    4    5 1
  11    4    9 1
  12    4   12 1
  13    5    6 1
  14    5   34 1
  15    5   35 1
  16    6    7 am
  17    6   10 2
  18    6   11 2
  19    7    8 1
  20    9   36 1
  21    9   37 1
  22    9   38 1
  23   12   13 ar
  24   12   17 ar
  25   13   14 ar
  26   13   39 1
  27   14   15 ar
  28   14   19 1
  29   15   16 ar
  30   15   40 1
  31   16   17 ar
  32   16   41 1
  33   17   18 1
  34   19   20 1
  35   19   23 2
  36   20   21 1
  37   20   42 1
  38   21   22 ar
  39   21   24 ar
  40   22   23 1
  41   22   27 ar
  42   23   43 1
  43   24   25 ar
  44   24   44 1
  45   25   26 ar
  46   25   28 1
  47   26   27 ar
  48   26   45 1
  49   27   46 1
  50   28   47 1
  51   28   48 1
  52   28   49 1

#	End of record

