#	Name: ASD08170774
#	Creating user name:	WinNT
#	Creation time:	15. 06. 2019 21:17

#	Modifying user name:	WinNT
#	Modification time:	15. 06. 2019 21:17

#	Program:	/corina/corina34_cracker 3.40 0067  02.08.2006

@<TRIPOS>MOLECULE
ASD08170774
  86   91    0    0    0
SMALL
NO_CHARGES


@<TRIPOS>ATOM
   1 N1            -0.0159     1.3150     0.0224 N.ar    
   2 C2             0.0017    -0.0034     0.0124 C.ar    
   3 C3            -1.2931    -0.7743     0.0243 C.3     
   4 C4            -2.1384    -0.3331     1.2208 C.3     
   5 C5            -3.4530    -1.1158     1.2328 C.3     
   6 C6            -4.2984    -0.6746     2.4294 C.3     
   7 C7            -5.5932    -1.4455     2.4412 C.2     
   8 C8             1.2122    -0.6808    -0.0095 C.ar    
   9 C9             2.3785     0.0690    -0.0202 C.ar    
  10 C10            2.2616     1.4575    -0.0083 C.ar    
  11 N11            1.0600     2.0148     0.0126 N.ar    
  12 N12            3.4043     2.2567    -0.0179 N.am    
  13 N13           -5.8033    -2.5767     3.0361 N.2     
  14 N14           -6.9625    -3.0651     2.9277 N.2     
  15 C15           -7.8359    -2.3975     2.2358 C.2     
  16 S16           -7.0970    -0.9657     1.6538 S.3     
  17 N17           -9.1540    -2.7791     2.0098 N.am    
  18 C18           -9.6205    -3.9317     2.5297 C.2     
  19 O19           -8.8908    -4.6361     3.1947 O.2     
  20 C20          -11.0488    -4.3451     2.2847 C.3     
  21 N21          -11.3079    -5.6243     2.9502 N.pl3   
  22 C22          -11.1356    -6.8621     2.4130 C.2     
  23 C23            3.2889     3.5963    -0.1113 C.2     
  24 O24            2.1992     4.1007    -0.2812 O.2     
  25 C25            4.5141     4.4673    -0.0047 C.3     
  26 C26            4.1152     5.9141    -0.1410 C.ar    
  27 C27            3.7801     6.6461     0.9814 C.ar    
  28 C28            3.4134     7.9784     0.8553 C.ar    
  29 C29            3.3843     8.5717    -0.3982 C.ar    
  30 C30            3.7204     7.8351    -1.5178 C.ar    
  31 C31            4.0906     6.5094    -1.3889 C.ar    
  32 C32          -11.7666    -5.7970     4.2408 C.ar    
  33 C33          -11.8610    -7.1852     4.4363 C.ar    
  34 N34          -11.4604    -7.7754     3.2809 N.2     
  35 C35          -12.1132    -4.9297     5.2680 C.ar    
  36 C36          -12.5479    -5.4380     6.4734 C.ar    
  37 C37          -12.6410    -6.8092     6.6659 C.ar    
  38 C38          -12.3049    -7.6776     5.6665 C.ar    
  39 C39          -10.6405    -7.1357     1.0162 C.3     
  40 N40           -9.1757    -7.2454     1.0285 N.3     
  41 C41           -8.6743    -7.7431    -0.2588 C.3     
  42 C42           -7.1444    -7.7067    -0.2605 C.3     
  43 C43           -6.6167    -8.5757     0.8844 C.3     
  44 C44           -7.1921    -8.0660     2.2087 C.3     
  45 C45           -8.7207    -8.0921     2.1388 C.3     
  46 O46            3.0828     8.7006     1.9580 O.3     
  47 C47            2.7154    10.0662     1.7530 C.3     
  48 F48            1.5973    10.1275     0.9144 F       
  49 F49            2.4082    10.6563     2.9837 F       
  50 F50            3.7811    10.7519     1.1602 F       
  51 H51           -1.8401    -0.5802    -0.8983 H       
  52 H52           -1.0805    -1.8405     0.1031 H       
  53 H53           -1.5915    -0.5273     2.1434 H       
  54 H54           -2.3511     0.7331     1.1420 H       
  55 H55           -4.0000    -0.9216     0.3102 H       
  56 H56           -3.2404    -2.1820     1.3116 H       
  57 H57           -3.7514    -0.8687     3.3520 H       
  58 H58           -4.5110     0.3916     2.3505 H       
  59 H59            1.2451    -1.7603    -0.0176 H       
  60 H60            3.3472    -0.4082    -0.0369 H       
  61 H61            4.2821     1.8485     0.0427 H       
  62 H62           -9.7376    -2.2157     1.4779 H       
  63 H63          -11.7206    -3.5852     2.6839 H       
  64 H64          -11.2174    -4.4524     1.2132 H       
  65 H65            4.9880     4.3107     0.9643 H       
  66 H66            5.2148     4.2073    -0.7981 H       
  67 H67            3.8032     6.1818     1.9562 H       
  68 H68            3.0989     9.6084    -0.4989 H       
  69 H69            3.6980     8.2966    -2.4939 H       
  70 H70            4.3529     5.9353    -2.2653 H       
  71 H71          -12.0423    -3.8618     5.1235 H       
  72 H72          -12.8176    -4.7645     7.2735 H       
  73 H73          -12.9828    -7.1936     7.6155 H       
  74 H74          -12.3819    -8.7428     5.8268 H       
  75 H75          -11.0717    -8.0691     0.6542 H       
  76 H76          -10.9382    -6.3189     0.3587 H       
  77 H77           -9.0133    -8.7682    -0.4088 H       
  78 H78           -9.0535    -7.1139    -1.0640 H       
  79 H79           -6.7722    -8.0908    -1.2103 H       
  80 H80           -6.8047    -6.6799    -0.1243 H       
  81 H81           -6.9236    -9.6099     0.7280 H       
  82 H82           -5.5286    -8.5181     0.9138 H       
  83 H83           -6.8541    -8.7069     3.0230 H       
  84 H84           -6.8532    -7.0449     2.3837 H       
  85 H85           -9.1335    -7.7162     3.0749 H       
  86 H86           -9.0595    -9.1154     1.9775 H       
@<TRIPOS>BOND
   1    1    2 ar
   2    1   11 ar
   3    2    3 1
   4    2    8 ar
   5    3    4 1
   6    3   51 1
   7    3   52 1
   8    4    5 1
   9    4   53 1
  10    4   54 1
  11    5    6 1
  12    5   55 1
  13    5   56 1
  14    6    7 1
  15    6   57 1
  16    6   58 1
  17    7   13 2
  18    7   16 1
  19    8    9 ar
  20    8   59 1
  21    9   10 ar
  22    9   60 1
  23   10   11 ar
  24   10   12 1
  25   12   23 am
  26   12   61 1
  27   13   14 1
  28   14   15 2
  29   15   16 1
  30   15   17 1
  31   17   18 am
  32   17   62 1
  33   18   19 2
  34   18   20 1
  35   20   21 1
  36   20   63 1
  37   20   64 1
  38   21   32 1
  39   21   22 1
  40   22   39 1
  41   22   34 2
  42   23   24 2
  43   23   25 1
  44   25   26 1
  45   25   65 1
  46   25   66 1
  47   26   27 ar
  48   26   31 ar
  49   27   28 ar
  50   27   67 1
  51   28   29 ar
  52   28   46 1
  53   29   30 ar
  54   29   68 1
  55   30   31 ar
  56   30   69 1
  57   31   70 1
  58   32   33 ar
  59   32   35 ar
  60   33   34 1
  61   33   38 ar
  62   35   36 ar
  63   35   71 1
  64   36   37 ar
  65   36   72 1
  66   37   38 ar
  67   37   73 1
  68   38   74 1
  69   39   40 1
  70   39   75 1
  71   39   76 1
  72   40   41 1
  73   40   45 1
  74   41   42 1
  75   41   77 1
  76   41   78 1
  77   42   43 1
  78   42   79 1
  79   42   80 1
  80   43   44 1
  81   43   81 1
  82   43   82 1
  83   44   45 1
  84   44   83 1
  85   44   84 1
  86   45   85 1
  87   45   86 1
  88   46   47 1
  89   47   48 1
  90   47   49 1
  91   47   50 1

#	End of record

