#	Name: ASD03540192
#	Creating user name:	WinNT
#	Creation time:	15. 06. 2019 20:42

#	Modifying user name:	WinNT
#	Modification time:	15. 06. 2019 20:42

#	Program:	/corina/corina34_cracker 3.40 0067  02.08.2006

@<TRIPOS>MOLECULE
ASD03540192
  64   67    0    0    0
SMALL
NO_CHARGES


@<TRIPOS>ATOM
   1 C1             1.1604    -1.6182     6.2601 C.3     
   2 C2             2.5961    -1.0894     6.2598 C.3     
   3 C3             2.8565    -0.3214     4.9624 C.3     
   4 C4             2.6571    -1.2561     3.7676 C.3     
   5 C5             1.2213    -1.7850     3.7679 C.3     
   6 C6             0.9610    -2.5529     5.0653 C.3     
   7 C7             0.9039    -2.3746     7.5380 C.2     
   8 O8             1.7796    -2.4800     8.3638 O.2     
   9 O9            -0.2974    -2.9314     7.7588 O.3     
  10 C10            2.9174    -0.4882     2.4702 C.3     
  11 C11            4.3788     1.4481     2.4146 C.2     
  12 N12            5.5735     2.0553     2.4529 N.am    
  13 C13            6.7436     1.3324     2.6036 C.2     
  14 C14            6.6733    -0.0509     2.7171 C.2     
  15 C15            5.3314    -0.6737     2.6685 C.2     
  16 N16            4.2514     0.1155     2.5194 N.am    
  17 C17            7.9261    -0.6509     2.8631 C.2     
  18 C18            8.9556     0.2122     2.8665 C.2     
  19 S19            8.3681     1.8550     2.6811 S.3     
  20 O20            5.2065    -1.8805     2.7626 O.2     
  21 O21            3.3781     2.1263     2.2858 O.2     
  22 C22            2.8364    -1.4500     1.2832 C.3     
  23 C23           10.3646    -0.1638     3.0050 C.2     
  24 N24           11.3198     0.7869     2.9954 N.am    
  25 O25           10.6726    -1.3348     3.1288 O.2     
  26 C26           12.7290     0.4109     3.1339 C.3     
  27 C27           13.5859     1.6498     3.0920 C.ar    
  28 C28           13.8888     2.3194     4.2620 C.ar    
  29 C29           14.6777     3.4597     4.2228 C.ar    
  30 C30           15.1606     3.9250     3.0081 C.ar    
  31 C31           14.8550     3.2520     1.8413 C.ar    
  32 C32           14.0730     2.1122     1.8837 C.ar    
  33 O33           14.9766     4.1204     5.3722 O.3     
  34 C34           15.7938     5.2869     5.2562 C.3     
  35 C35           -0.4731    -3.6448     9.0111 C.3     
  36 H36            0.4651    -0.7819     6.1871 H       
  37 H37            2.7381    -0.4235     7.1110 H       
  38 H38            3.2913    -1.9257     6.3328 H       
  39 H39            2.1612     0.5149     4.8894 H       
  40 H40            3.8793     0.0553     4.9622 H       
  41 H41            3.3523    -2.0924     3.8406 H       
  42 H42            0.5261    -0.9486     3.6949 H       
  43 H43            1.0793    -2.4509     2.9167 H       
  44 H44            1.6562    -3.3892     5.1383 H       
  45 H45           -0.0619    -2.9297     5.0655 H       
  46 H46            2.1682     0.2951     2.3550 H       
  47 H47            5.6185     3.0209     2.3730 H       
  48 H48            8.0562    -1.7182     2.9649 H       
  49 H49            3.5857    -2.2333     1.3984 H       
  50 H50            1.8439    -1.8992     1.2466 H       
  51 H51            3.0219    -0.9029     0.3588 H       
  52 H52           11.0743     1.7202     2.8967 H       
  53 H53           12.8766    -0.1011     4.0847 H       
  54 H54           13.0099    -0.2530     2.3163 H       
  55 H55           13.5114     1.9555     5.2062 H       
  56 H56           15.7747     4.8128     2.9750 H       
  57 H57           15.2303     3.6139     0.8955 H       
  58 H58           13.8391     1.5847     0.9708 H       
  59 H59           16.7535     5.0159     4.8161 H       
  60 H60           15.2955     6.0178     4.6194 H       
  61 H61           15.9559     5.7167     6.2447 H       
  62 H62            0.2439    -4.4639     9.0664 H       
  63 H63           -0.3092    -2.9617     9.8446 H       
  64 H64           -1.4859    -4.0444     9.0626 H       
@<TRIPOS>BOND
   1    1    2 1
   2    1    6 1
   3    1    7 1
   4    1   36 1
   5    2    3 1
   6    2   37 1
   7    2   38 1
   8    3    4 1
   9    3   39 1
  10    3   40 1
  11    4    5 1
  12    4   10 1
  13    4   41 1
  14    5    6 1
  15    5   42 1
  16    5   43 1
  17    6   44 1
  18    6   45 1
  19    7    8 2
  20    7    9 1
  21    9   35 1
  22   10   16 1
  23   10   22 1
  24   10   46 1
  25   11   12 am
  26   11   16 am
  27   11   21 2
  28   12   13 1
  29   12   47 1
  30   13   14 2
  31   13   19 1
  32   14   15 1
  33   14   17 1
  34   15   16 am
  35   15   20 2
  36   17   18 2
  37   17   48 1
  38   18   19 1
  39   18   23 1
  40   22   49 1
  41   22   50 1
  42   22   51 1
  43   23   24 am
  44   23   25 2
  45   24   26 1
  46   24   52 1
  47   26   27 1
  48   26   53 1
  49   26   54 1
  50   27   28 ar
  51   27   32 ar
  52   28   29 ar
  53   28   55 1
  54   29   30 ar
  55   29   33 1
  56   30   31 ar
  57   30   56 1
  58   31   32 ar
  59   31   57 1
  60   32   58 1
  61   33   34 1
  62   34   59 1
  63   34   60 1
  64   34   61 1
  65   35   62 1
  66   35   63 1
  67   35   64 1

#	End of record

