#	Name: ASD07300515
#	Creating user name:	WinNT
#	Creation time:	15. 06. 2019 21:09

#	Modifying user name:	WinNT
#	Modification time:	15. 06. 2019 21:09

#	Program:	/corina/corina34_cracker 3.40 0067  02.08.2006

@<TRIPOS>MOLECULE
ASD07300515
  32   35    0    0    0
SMALL
NO_CHARGES


@<TRIPOS>ATOM
   1 C1            -0.0158     1.3126     0.0093 C.2     
   2 N2             0.0021    -0.0041     0.0020 N.2     
   3 C3             1.2853    -0.4491    -0.0126 C.ar    
   4 C4             2.1166     0.6809    -0.0145 C.ar    
   5 N5             1.2675     1.7867    -0.0004 N.am    
   6 C6             1.8585    -1.7229    -0.0245 C.ar    
   7 C7             3.2299    -1.8554    -0.0379 C.ar    
   8 C8             4.0453    -0.7346    -0.0397 C.ar    
   9 C9             3.4928     0.5313    -0.0280 C.ar    
  10 N10           -0.9269     2.3548     0.0285 N.pl3   
  11 C11           -0.1447     3.5993     0.0233 C.3     
  12 C12            1.2947     3.1365     0.0069 C.2     
  13 O13            2.2813     3.8406     0.0018 O.2     
  14 C14           -2.3204     2.2449     0.0490 C.ar    
  15 C15           -3.1086     3.3885     0.0669 C.ar    
  16 C16           -4.4850     3.2764     0.0871 C.ar    
  17 C17           -5.0785     2.0274     0.0900 C.ar    
  18 C18           -4.2967     0.8868     0.0726 C.ar    
  19 C19           -2.9199     0.9919     0.0456 C.ar    
  20 N20           -6.5540     1.9110     0.1122 N.pl3   
  21 O21           -7.2439     2.9147     0.1279 O.2     
  22 O22           -7.0782     0.8116     0.1147 O.2     
  23 H23            1.2291    -2.6006    -0.0229 H       
  24 H24            3.6730    -2.8403    -0.0468 H       
  25 H25            5.1189    -0.8517    -0.0503 H       
  26 H26            4.1323     1.4016    -0.0292 H       
  27 H27           -0.3708     4.1877    -0.8660 H       
  28 H28           -0.3438     4.1783     0.9251 H       
  29 H29           -2.6457     4.3643     0.0654 H       
  30 H30           -5.0984     4.1652     0.1011 H       
  31 H31           -4.7634    -0.0871     0.0756 H       
  32 H32           -2.3100     0.1008     0.0272 H       
@<TRIPOS>BOND
   1    1    2 2
   2    1    5 1
   3    1   10 1
   4    2    3 1
   5    3    4 ar
   6    3    6 ar
   7    4    5 1
   8    4    9 ar
   9    5   12 am
  10    6    7 ar
  11    6   23 1
  12    7    8 ar
  13    7   24 1
  14    8    9 ar
  15    8   25 1
  16    9   26 1
  17   10   11 1
  18   10   14 1
  19   11   12 1
  20   11   27 1
  21   11   28 1
  22   12   13 2
  23   14   15 ar
  24   14   19 ar
  25   15   16 ar
  26   15   29 1
  27   16   17 ar
  28   16   30 1
  29   17   18 ar
  30   17   20 1
  31   18   19 ar
  32   18   31 1
  33   19   32 1
  34   20   21 2
  35   20   22 2

#	End of record

