#	Name: ASD01880411
#	Creating user name:	WinNT
#	Creation time:	15. 06. 2019 19:40

#	Modifying user name:	WinNT
#	Modification time:	15. 06. 2019 19:40

#	Program:	/corina/corina34_cracker 3.40 0067  02.08.2006

@<TRIPOS>MOLECULE
ASD01880411
  24   25    0    0    0
SMALL
NO_CHARGES


@<TRIPOS>ATOM
   1 C1            -0.0188     1.5345     0.0105 C.3     
   2 C2             0.0021    -0.0041     0.0020 C.3     
   3 C3            -0.5659    -0.4600     1.3619 C.3     
   4 C4            -1.4304     0.7359     1.8327 C.3     
   5 C5            -0.5987     1.9599     1.3752 C.3     
   6 C6             1.3139     0.7832    -0.0063 C.3     
   7 H7            -0.3223     2.1021    -0.8692 H       
   8 H8            -0.2947    -0.5701    -0.8810 H       
   9 N9             0.5230    -0.7139     2.3148 N.3     
  10 C10            2.1056     0.8010    -1.2884 C.2     
  11 O11            1.6937     0.2143    -2.2610 O.2     
  12 O12            3.2685     1.4687    -1.3500 O.3     
  13 C13           -1.4174    -1.6916     1.1917 C.2     
  14 O14           -1.9421    -1.9210     0.1278 O.2     
  15 O15           -1.5929    -2.5339     2.2220 O.3     
  16 H16           -2.4039     0.7254     1.3426 H       
  17 H17           -1.5424     0.7284     2.9169 H       
  18 H18            0.2039     2.1623     2.0844 H       
  19 H19           -1.2385     2.8350     1.2618 H       
  20 H20            1.9042     0.7862     0.9101 H       
  21 H21            0.1599    -1.0127     3.2075 H       
  22 H22            1.1763    -1.3885     1.9459 H       
  23 H23            3.7405     1.4514    -2.1938 H       
  24 H24           -2.1474    -3.3103     2.0648 H       
@<TRIPOS>BOND
   1    1    2 1
   2    1    6 1
   3    1    7 1
   4    1    5 1
   5    2    3 1
   6    2    8 1
   7    2    6 1
   8    3    4 1
   9    3    9 1
  10    3   13 1
  11    4    5 1
  12    4   16 1
  13    4   17 1
  14    5   18 1
  15    5   19 1
  16    6   10 1
  17    6   20 1
  18    9   21 1
  19    9   22 1
  20   10   11 2
  21   10   12 1
  22   12   23 1
  23   13   14 2
  24   13   15 1
  25   15   24 1

#	End of record

