#	Name: ASD01884375
#	Creating user name:	WinNT
#	Creation time:	15. 06. 2019 19:48

#	Modifying user name:	WinNT
#	Modification time:	15. 06. 2019 19:48

#	Program:	/corina/corina34_cracker 3.40 0067  02.08.2006

@<TRIPOS>MOLECULE
ASD01884375
  28   29    0    0    0
SMALL
NO_CHARGES


@<TRIPOS>ATOM
   1 C1            -0.0693     1.4313     0.3145 C.ar    
   2 C2            -0.1382     0.1446     0.8075 C.ar    
   3 N3             0.8923    -0.3978     1.4282 N.ar    
   4 C4             2.0238     0.2581     1.6042 C.ar    
   5 C5             2.1719     1.5492     1.1408 C.ar    
   6 C6             1.1076     2.1577     0.4797 C.ar    
   7 O7             1.2145     3.4262     0.0088 O.3     
   8 C8             2.4216     4.0431     0.1057 C.ar    
   9 C9             3.3531     3.9102    -0.9138 C.ar    
  10 C10            2.7214     4.8111     1.2215 C.ar    
  11 C11            3.9487     5.4384     1.3189 C.ar    
  12 C12            4.8792     5.3017     0.3052 C.ar    
  13 C13            4.5808     4.5395    -0.8132 C.ar    
  14 C14            3.1683    -0.4112     2.3206 C.3     
  15 F15            5.4911     4.4065    -1.8026 F       
  16 Br16           6.5576     6.1621     0.4415 Br      
  17 C17           -1.4063    -0.6513     0.6355 C.3     
  18 H18           -0.9148     1.8678    -0.1964 H       
  19 H19            3.1004     2.0807     1.2887 H       
  20 H20            3.1201     3.3159    -1.7849 H       
  21 H21            1.9954     4.9190     2.0137 H       
  22 H22            4.1813     6.0364     2.1877 H       
  23 H23            3.7934    -0.9347     1.5971 H       
  24 H24            3.7633     0.3415     2.8376 H       
  25 H25            2.7758    -1.1247     3.0451 H       
  26 H26           -1.3632    -1.2052    -0.3023 H       
  27 H27           -1.5123    -1.3498     1.4655 H       
  28 H28           -2.2606     0.0255     0.6187 H       
@<TRIPOS>BOND
   1    1    2 ar
   2    1    6 ar
   3    1   18 1
   4    2    3 ar
   5    2   17 1
   6    3    4 ar
   7    4    5 ar
   8    4   14 1
   9    5    6 ar
  10    5   19 1
  11    6    7 1
  12    7    8 1
  13    8    9 ar
  14    8   10 ar
  15    9   13 ar
  16    9   20 1
  17   10   11 ar
  18   10   21 1
  19   11   12 ar
  20   11   22 1
  21   12   13 ar
  22   12   16 1
  23   13   15 1
  24   14   23 1
  25   14   24 1
  26   14   25 1
  27   17   26 1
  28   17   27 1
  29   17   28 1

#	End of record

