#	Name: ASD04910259
#	Creating user name:	WinNT
#	Creation time:	15. 06. 2019 20:55

#	Modifying user name:	WinNT
#	Modification time:	15. 06. 2019 20:55

#	Program:	/corina/corina34_cracker 3.40 0067  02.08.2006

@<TRIPOS>MOLECULE
ASD04910259
  64   66    0    0    0
SMALL
NO_CHARGES


@<TRIPOS>ATOM
   1 C1            -1.4872     1.5165    -0.3184 C.ar    
   2 C2            -1.6316     0.1386    -0.4301 C.ar    
   3 C3            -1.8181    -0.4456    -1.6774 C.ar    
   4 C4            -1.8601     0.3393    -2.8080 C.ar    
   5 C5            -1.7154     1.7249    -2.7001 C.ar    
   6 C6            -1.5285     2.3084    -1.4442 C.ar    
   7 C7            -1.7593     2.5700    -3.9095 C.2     
   8 N8            -1.6195     3.9063    -3.8033 N.am    
   9 O9            -1.9215     2.0606    -5.0015 O.2     
  10 C10           -1.6631     4.7450    -5.0036 C.3     
  11 C11           -1.4807     6.2116    -4.6079 C.3     
  12 C12           -1.5255     7.0744    -5.8427 C.2     
  13 O13           -1.3863     8.4053    -5.7369 O.3     
  14 O14           -1.6868     6.5682    -6.9279 O.2     
  15 C15           -1.4398     9.1735    -6.9679 C.3     
  16 O16           -1.5899    -0.6385     0.6818 O.3     
  17 C17           -1.6218    -2.0536     0.4857 C.3     
  18 C18           -1.0332    -2.7519     1.7132 C.3     
  19 C19           -3.0472    -2.5014     0.2884 C.ar    
  20 C20            0.4580    -2.4263     1.8190 C.3     
  21 C21            0.6359    -0.9296     2.0815 C.3     
  22 C22            1.0735    -3.2229     2.9713 C.3     
  23 C23           -3.3300    -3.5419    -0.5772 C.ar    
  24 C24           -4.0690    -1.8747     0.9778 C.ar    
  25 C25           -5.3763    -2.2832     0.7993 C.ar    
  26 C26           -5.6639    -3.3240    -0.0731 C.ar    
  27 C27           -4.6355    -3.9544    -0.7601 C.ar    
  28 N28           -6.9902    -3.7412    -0.2560 N.pl3   
  29 C29           -7.4213    -4.7489    -1.0796 C.2     
  30 C30           -8.7602    -4.8121    -0.9506 C.2     
  31 N31           -9.1413    -3.8714    -0.0738 N.2     
  32 C32           -8.0898    -3.2273     0.3538 C.2     
  33 C33           -9.6728    -5.7732    -1.6680 C.3     
  34 F34           -9.8193    -6.9358    -0.9038 F       
  35 F35          -10.9245    -5.1767    -1.8543 F       
  36 F36           -9.1217    -6.0991    -2.9119 F       
  37 H37           -1.3469     1.9671     0.6530 H       
  38 H38           -1.9299    -1.5166    -1.7600 H       
  39 H39           -2.0043    -0.1154    -3.7770 H       
  40 H40           -1.4166     3.3790    -1.3566 H       
  41 H41           -1.4900     4.3127    -2.9321 H       
  42 H42           -0.8630     4.4497    -5.6825 H       
  43 H43           -2.6254     4.6195    -5.4998 H       
  44 H44           -2.2807     6.5070    -3.9291 H       
  45 H45           -0.5183     6.3371    -4.1117 H       
  46 H46           -2.4039     9.0175    -7.4519 H       
  47 H47           -1.3143    10.2323    -6.7411 H       
  48 H48           -0.6415     8.8476    -7.6346 H       
  49 H49           -1.0346    -2.3117    -0.3955 H       
  50 H50           -1.5456    -2.4036     2.6100 H       
  51 H51           -1.1637    -3.8297     1.6156 H       
  52 H52            0.9553    -2.6933     0.8865 H       
  53 H53            0.0010    -0.6289     2.9149 H       
  54 H54            1.6781    -0.7249     2.3265 H       
  55 H55            0.3553    -0.3685     1.1901 H       
  56 H56            0.9468    -4.2892     2.7843 H       
  57 H57            2.1358    -2.9909     3.0466 H       
  58 H58            0.5763    -2.9559     3.9038 H       
  59 H59           -2.5295    -4.0322    -1.1112 H       
  60 H60           -3.8446    -1.0653     1.6567 H       
  61 H61           -6.1740    -1.7936     1.3383 H       
  62 H62           -4.8563    -4.7642    -1.4397 H       
  63 H63           -6.8054    -5.3721    -1.7110 H       
  64 H64           -8.0940    -2.4166     1.0674 H       
@<TRIPOS>BOND
   1    1    2 ar
   2    1    6 ar
   3    1   37 1
   4    2    3 ar
   5    2   16 1
   6    3    4 ar
   7    3   38 1
   8    4    5 ar
   9    4   39 1
  10    5    6 ar
  11    5    7 1
  12    6   40 1
  13    7    8 am
  14    7    9 2
  15    8   10 1
  16    8   41 1
  17   10   11 1
  18   10   42 1
  19   10   43 1
  20   11   12 1
  21   11   44 1
  22   11   45 1
  23   12   13 1
  24   12   14 2
  25   13   15 1
  26   15   46 1
  27   15   47 1
  28   15   48 1
  29   16   17 1
  30   17   18 1
  31   17   19 1
  32   17   49 1
  33   18   20 1
  34   18   50 1
  35   18   51 1
  36   19   23 ar
  37   19   24 ar
  38   20   21 1
  39   20   22 1
  40   20   52 1
  41   21   53 1
  42   21   54 1
  43   21   55 1
  44   22   56 1
  45   22   57 1
  46   22   58 1
  47   23   27 ar
  48   23   59 1
  49   24   25 ar
  50   24   60 1
  51   25   26 ar
  52   25   61 1
  53   26   27 ar
  54   26   28 1
  55   27   62 1
  56   28   29 1
  57   28   32 1
  58   29   30 2
  59   29   63 1
  60   30   31 1
  61   30   33 1
  62   31   32 2
  63   32   64 1
  64   33   34 1
  65   33   35 1
  66   33   36 1

#	End of record

