#	Name: ASD01810406
#	Creating user name:	WinNT
#	Creation time:	15. 06. 2019 19:24

#	Modifying user name:	WinNT
#	Modification time:	15. 06. 2019 19:24

#	Program:	/corina/corina34_cracker 3.40 0067  02.08.2006

@<TRIPOS>MOLECULE
ASD01810406
  47   52    0    0    0
SMALL
NO_CHARGES


@<TRIPOS>ATOM
   1 C1            -0.0179     1.4698     0.0101 C.2     
   2 C2             0.0021    -0.0041     0.0020 C.2     
   3 C3             1.2170    -0.7151    -0.0130 C.2     
   4 C4             2.4494    -0.0231    -0.0206 C.2     
   5 C5             2.4091     1.4820    -0.0117 C.3     
   6 N6             1.1071     2.1470     0.0030 N.2     
   7 C7            -1.3772     2.0488     0.0201 C.2     
   8 C8            -2.4546     1.0078     0.0198 C.3     
   9 S9            -1.6109    -0.5960     0.0142 S.3     
  10 N10            2.8902    -2.1128    -0.0359 N.2     
  11 N11            3.3897    -0.9281    -0.0341 N.2     
  12 C12            1.5745    -2.0771    -0.0236 C.2     
  13 O13           -1.5967     3.2367     0.0283 O.2     
  14 C14            3.1876     1.9587     1.2161 C.3     
  15 N15            3.3013     7.5770     1.2947 N.pl3   
  16 N16            2.1237     7.8077     2.0133 N.2     
  17 C17            1.5605     6.6753     2.3245 C.2     
  18 C18            2.3937     5.6020     1.7922 C.ar    
  19 C19            2.3083     4.2052     1.8080 C.ar    
  20 C20            3.2788     3.4629     1.2003 C.ar    
  21 C21            4.3506     4.0807     0.5673 C.ar    
  22 C22            4.4564     5.4422     0.5393 C.ar    
  23 C23            3.4809     6.2261     1.1507 C.ar    
  24 C24            4.1961     8.6136     0.7740 C.3     
  25 C25           -3.3006     1.1379     1.2602 C.ar    
  26 C26           -2.9034     0.5252     2.4369 C.ar    
  27 C27           -3.6815     0.6456     3.5755 C.ar    
  28 C28           -4.8537     1.3769     3.5368 C.ar    
  29 C29           -5.2494     1.9876     2.3616 C.ar    
  30 C30           -4.4699     1.8733     1.2253 C.ar    
  31 F31           -1.7577    -0.1897     2.4735 F       
  32 H32            2.9472     1.8315    -0.8929 H       
  33 H33           -3.0754     1.1116    -0.8701 H       
  34 H34            0.9033    -2.9232    -0.0219 H       
  35 H35            2.6726     1.6355     2.1208 H       
  36 H36            4.1911     1.5336     1.1977 H       
  37 H37            0.6414     6.5525     2.8781 H       
  38 H38            1.4791     3.7175     2.2988 H       
  39 H39            5.1094     3.4769     0.0919 H       
  40 H40            5.2949     5.9098     0.0446 H       
  41 H41            4.9509     8.8520     1.5234 H       
  42 H42            4.6841     8.2513    -0.1308 H       
  43 H43            3.6190     9.5087     0.5420 H       
  44 H44           -3.3729     0.1679     4.4937 H       
  45 H45           -5.4609     1.4709     4.4249 H       
  46 H46           -6.1658     2.5583     2.3320 H       
  47 H47           -4.7774     2.3552     0.3090 H       
@<TRIPOS>BOND
   1    1    2 1
   2    1    6 2
   3    1    7 1
   4    2    3 2
   5    2    9 1
   6    3    4 1
   7    3   12 1
   8    4    5 1
   9    4   11 2
  10    5    6 1
  11    5   14 1
  12    5   32 1
  13    7    8 1
  14    7   13 2
  15    8    9 1
  16    8   25 1
  17    8   33 1
  18   10   11 1
  19   10   12 2
  20   12   34 1
  21   14   20 1
  22   14   35 1
  23   14   36 1
  24   15   16 1
  25   15   23 1
  26   15   24 1
  27   16   17 2
  28   17   18 1
  29   17   37 1
  30   18   19 ar
  31   18   23 ar
  32   19   20 ar
  33   19   38 1
  34   20   21 ar
  35   21   22 ar
  36   21   39 1
  37   22   23 ar
  38   22   40 1
  39   24   41 1
  40   24   42 1
  41   24   43 1
  42   25   26 ar
  43   25   30 ar
  44   26   27 ar
  45   26   31 1
  46   27   28 ar
  47   27   44 1
  48   28   29 ar
  49   28   45 1
  50   29   30 ar
  51   29   46 1
  52   30   47 1

#	End of record

