#	Name: ASD03091774
#	Creating user name:	WinNT
#	Creation time:	15. 06. 2019 20:31

#	Modifying user name:	WinNT
#	Modification time:	15. 06. 2019 20:31

#	Program:	/corina/corina34_cracker 3.40 0067  02.08.2006

@<TRIPOS>MOLECULE
ASD03091774
  32   34    0    0    0
SMALL
NO_CHARGES


@<TRIPOS>ATOM
   1 C1            -0.0110     1.4656    -0.0349 C.3     
   2 C2             0.0628    -0.0610    -0.1061 C.3     
   3 N3             0.7605    -0.5746     1.0796 N.3     
   4 C4             0.0359    -0.2335     2.3104 C.3     
   5 C5            -0.0392     1.2878     2.4556 C.3     
   6 C6             1.3802     1.8607     2.5289 C.3     
   7 N7             2.0585     1.6065     1.2506 N.am    
   8 C8             1.4090     2.0404     0.0062 C.3     
   9 C9             3.2546     0.9861     1.2201 C.2     
  10 O10            3.7523     0.6758     0.1534 O.2     
  11 C11            3.9553     0.6855     2.4697 C.2     
  12 C12            5.0959    -0.0577     2.5917 C.2     
  13 C13           -0.7565     1.8783     1.2378 C.3     
  14 O14            3.5908     1.0988     3.7027 O.3     
  15 C15            4.4661     0.6332     4.6036 C.2     
  16 C16            5.4142    -0.0885     3.9562 C.2     
  17 F17            4.4150     0.8501     5.9361 F       
  18 H18           -0.5342     1.8473    -0.9117 H       
  19 H19           -0.9462    -0.4721    -0.1401 H       
  20 H20            0.6058    -0.3570    -1.0036 H       
  21 H21            0.9066    -1.5705     1.0101 H       
  22 H22           -0.9728    -0.6441     2.2635 H       
  23 H23            0.5595    -0.6547     3.1686 H       
  24 H24           -0.5830     1.5415     3.3655 H       
  25 H25            1.3320     2.9345     2.7099 H       
  26 H26            1.9287     1.3759     3.3365 H       
  27 H27            1.9765     1.6740    -0.8492 H       
  28 H28            1.3636     3.1291    -0.0219 H       
  29 H29            5.6457    -0.5302     1.7912 H       
  30 H30           -0.7706     2.9654     1.3153 H       
  31 H31           -1.7787     1.5018     1.1993 H       
  32 H32            6.2560    -0.5927     4.4073 H       
@<TRIPOS>BOND
   1    1    2 1
   2    1    8 1
   3    1   13 1
   4    1   18 1
   5    2    3 1
   6    2   19 1
   7    2   20 1
   8    3    4 1
   9    3   21 1
  10    4    5 1
  11    4   22 1
  12    4   23 1
  13    5    6 1
  14    5   13 1
  15    5   24 1
  16    6    7 1
  17    6   25 1
  18    6   26 1
  19    7    8 1
  20    7    9 am
  21    8   27 1
  22    8   28 1
  23    9   10 2
  24    9   11 1
  25   11   12 2
  26   11   14 1
  27   12   16 1
  28   12   29 1
  29   13   30 1
  30   13   31 1
  31   14   15 1
  32   15   16 2
  33   15   17 1
  34   16   32 1

#	End of record

