#	Name: ASD09116141
#	Creating user name:	WinNT
#	Creation time:	15. 06. 2019 21:20

#	Modifying user name:	WinNT
#	Modification time:	15. 06. 2019 21:20

#	Program:	/corina/corina34_cracker 3.40 0067  02.08.2006

@<TRIPOS>MOLECULE
ASD09116141
  67   73    0    0    0
SMALL
NO_CHARGES


@<TRIPOS>ATOM
   1 N1            -0.0266     1.4808     0.1057 N.2     
   2 C2            -0.0141     0.0098     0.1920 C.3     
   3 C3             1.2223     1.8594     0.0817 C.2     
   4 N4             2.0840     0.8237     0.1413 N.2     
   5 C5             1.4645    -0.3258     0.2096 C.2     
   6 N6             1.6189     3.1796     0.0037 N.pl3   
   7 C7             2.9746     3.5091     0.0981 C.ar    
   8 C8             3.4704     4.6163    -0.5778 C.ar    
   9 C9             3.8274     2.7330     0.8727 C.ar    
  10 C10            5.1654     3.0616     0.9643 C.ar    
  11 C11            5.6538     4.1654     0.2834 C.ar    
  12 C12            4.8130     4.9368    -0.4785 C.ar    
  13 N13            2.0277    -1.5618     0.2813 N.pl3   
  14 C14           -0.6796    -0.4539     1.4621 C.ar    
  15 C15           -1.3063     0.4718     2.2710 C.ar    
  16 N16           -0.6538    -1.7431     1.7733 N.ar    
  17 C17           -1.2182    -2.1764     2.8617 C.ar    
  18 C18           -1.8711    -1.3081     3.7444 C.ar    
  19 C19           -1.9273     0.0461     3.4554 C.ar    
  20 C20           -1.2570    -3.6214     3.3242 C.3     
  21 C21           -0.6312    -3.6369     4.7341 C.3     
  22 C22           -1.3478    -2.6148     5.6192 C.3     
  23 N23           -2.4204    -1.9381     4.8639 N.3     
  24 C24           -3.4070    -2.9438     4.4230 C.3     
  25 C25           -2.7479    -3.9743     3.5037 C.3     
  26 C26           -2.6077     1.0035     4.3605 C.ar    
  27 C27           -1.9561     2.1672     4.7655 C.ar    
  28 C28           -3.9036     0.7460     4.8047 C.ar    
  29 C29           -4.5321     1.6409     5.6466 C.ar    
  30 C30           -3.8788     2.7918     6.0492 C.ar    
  31 C31           -2.5945     3.0549     5.6076 C.ar    
  32 C32            7.1213     4.5109     0.3969 C.3     
  33 C33            7.8110     4.1855    -0.9318 C.3     
  34 C34            7.5738     5.3025    -1.9101 C.2     
  35 C35            6.1987     5.6606    -2.4019 C.3     
  36 C36            5.3399     6.1426    -1.2228 C.3     
  37 O37            8.5204     5.9341    -2.3145 O.2     
  38 H38           -0.5005    -0.4306    -0.6784 H       
  39 H39            0.9572     3.8786    -0.1166 H       
  40 H40            2.8109     5.2247    -1.1789 H       
  41 H41            3.4443     1.8737     1.4030 H       
  42 H42            5.8302     2.4595     1.5659 H       
  43 H43            2.9932    -1.6553     0.2851 H       
  44 H44            1.4639    -2.3496     0.3287 H       
  45 H45           -1.3185     1.5159     1.9950 H       
  46 H46           -0.7421    -4.2910     2.6352 H       
  47 H47           -0.7371    -4.6312     5.1680 H       
  48 H48            0.4260    -3.3806     4.6655 H       
  49 H49           -1.7807    -3.1250     6.4797 H       
  50 H50           -0.6289    -1.8726     5.9661 H       
  51 H51           -3.8180    -3.4511     5.2958 H       
  52 H52           -4.2131    -2.4451     3.8848 H       
  53 H53           -3.2432    -3.9647     2.5327 H       
  54 H54           -2.8359    -4.9661     3.9472 H       
  55 H55           -0.9534     2.3736     4.4214 H       
  56 H56           -4.4149    -0.1519     4.4905 H       
  57 H57           -5.5361     1.4425     5.9914 H       
  58 H58           -4.3746     3.4895     6.7078 H       
  59 H59           -2.0890     3.9548     5.9254 H       
  60 H60            7.2305     5.5734     0.6144 H       
  61 H61            7.5737     3.9244     1.1965 H       
  62 H62            8.8821     4.0697    -0.7659 H       
  63 H63            7.4041     3.2579    -1.3343 H       
  64 H64            6.2741     6.4555    -3.1438 H       
  65 H65            5.7357     4.7841    -2.8553 H       
  66 H66            4.5046     6.7343    -1.5973 H       
  67 H67            5.9481     6.7496    -0.5522 H       
@<TRIPOS>BOND
   1    1    2 1
   2    1    3 2
   3    2   14 1
   4    2    5 1
   5    2   38 1
   6    3    4 1
   7    3    6 1
   8    4    5 2
   9    5   13 1
  10    6    7 1
  11    6   39 1
  12    7    8 ar
  13    7    9 ar
  14    8   12 ar
  15    8   40 1
  16    9   10 ar
  17    9   41 1
  18   10   11 ar
  19   10   42 1
  20   11   12 ar
  21   11   32 1
  22   12   36 1
  23   13   43 1
  24   13   44 1
  25   14   15 ar
  26   14   16 ar
  27   15   19 ar
  28   15   45 1
  29   16   17 ar
  30   17   18 ar
  31   17   20 1
  32   18   19 ar
  33   18   23 1
  34   19   26 1
  35   20   21 1
  36   20   25 1
  37   20   46 1
  38   21   22 1
  39   21   47 1
  40   21   48 1
  41   22   23 1
  42   22   49 1
  43   22   50 1
  44   23   24 1
  45   24   25 1
  46   24   51 1
  47   24   52 1
  48   25   53 1
  49   25   54 1
  50   26   27 ar
  51   26   28 ar
  52   27   31 ar
  53   27   55 1
  54   28   29 ar
  55   28   56 1
  56   29   30 ar
  57   29   57 1
  58   30   31 ar
  59   30   58 1
  60   31   59 1
  61   32   33 1
  62   32   60 1
  63   32   61 1
  64   33   34 1
  65   33   62 1
  66   33   63 1
  67   34   35 1
  68   34   37 2
  69   35   36 1
  70   35   64 1
  71   35   65 1
  72   36   66 1
  73   36   67 1

#	End of record

