#	Name: ASD01000074
#	Creating user name:	WinNT
#	Creation time:	15. 06. 2019 18:54

#	Modifying user name:	WinNT
#	Modification time:	15. 06. 2019 18:54

#	Program:	/corina/corina34_cracker 3.40 0067  02.08.2006

@<TRIPOS>MOLECULE
ASD01000074
  56   58    0    0    0
SMALL
NO_CHARGES


@<TRIPOS>ATOM
   1 C1             0.3603     1.3716     0.4483 C.ar    
   2 C2             0.5212     0.0149     0.6583 C.ar    
   3 C3             1.0149    -0.7874    -0.3534 C.ar    
   4 C4             1.3471    -0.2329    -1.5753 C.ar    
   5 C5             1.1852     1.1237    -1.7856 C.ar    
   6 C6             0.6929     1.9262    -0.7734 C.ar    
   7 C7             1.1913    -2.2663    -0.1241 C.3     
   8 C8             0.9800    -2.5772     1.3352 C.ar    
   9 C9             0.0162    -3.4926     1.7145 C.ar    
  10 C10           -0.1776    -3.7777     3.0531 C.ar    
  11 C11            0.5927    -3.1476     4.0126 C.ar    
  12 C12            1.5572    -2.2329     3.6333 C.ar    
  13 C13            1.7540    -1.9510     2.2943 C.ar    
  14 S14           -0.0191    -3.1810    -1.1186 S.3     
  15 C15           -1.5960    -2.4213    -0.6423 C.3     
  16 C16           -2.7474    -3.1718    -1.3147 C.3     
  17 C17            2.5845    -2.6746    -0.5281 C.ar    
  18 C18            2.8294    -3.9659    -0.9573 C.ar    
  19 C19            3.6164    -1.7566    -0.4750 C.ar    
  20 C20            4.8946    -2.1312    -0.8456 C.ar    
  21 C21            5.1406    -3.4237    -1.2689 C.ar    
  22 C22            4.1072    -4.3403    -1.3278 C.ar    
  23 N23           -2.5913    -3.1024    -2.7737 N.3     
  24 C24            4.3754    -5.7496    -1.7894 C.3     
  25 C25            6.5338    -3.8319    -1.6734 C.3     
  26 C26            4.8584    -6.5906    -0.6060 C.3     
  27 C27           -4.0574    -2.5406    -0.9190 C.2     
  28 O28           -4.6113    -1.7756    -1.6726 O.2     
  29 O29           -4.6088    -2.8283     0.2704 O.3     
  30 H30           -0.0296     1.9977     1.2373 H       
  31 H31            0.2617    -0.4183     1.6130 H       
  32 H32            1.7334    -0.8595    -2.3656 H       
  33 H33            1.4454     1.5571    -2.7401 H       
  34 H34            0.5662     2.9861    -0.9378 H       
  35 H35           -0.5857    -3.9848     0.9649 H       
  36 H36           -0.9312    -4.4924     3.3495 H       
  37 H37            0.4408    -3.3698     5.0585 H       
  38 H38            2.1588    -1.7404     4.3829 H       
  39 H39            2.5075    -1.2363     1.9980 H       
  40 H40           -1.7118    -2.4727     0.4403 H       
  41 H41           -1.6075    -1.3786    -0.9598 H       
  42 H42           -2.7359    -4.2145    -0.9972 H       
  43 H43            2.0223    -4.6820    -1.0028 H       
  44 H44            3.4242    -0.7467    -0.1443 H       
  45 H45            5.7008    -1.4137    -0.8048 H       
  46 H46           -2.5988    -2.1453    -3.0931 H       
  47 H47           -1.7512    -3.5761    -3.0704 H       
  48 H48            3.4587    -6.1809    -2.1915 H       
  49 H49            5.1421    -5.7385    -2.5641 H       
  50 H50            7.0691    -4.2095    -0.8022 H       
  51 H51            6.4778    -4.6125    -2.4320 H       
  52 H52            7.0620    -2.9688    -2.0785 H       
  53 H53            5.7751    -6.1593    -0.2038 H       
  54 H54            4.0917    -6.6017     0.1688 H       
  55 H55            5.0524    -7.6099    -0.9398 H       
  56 H56           -5.4497    -2.3991     0.4798 H       
@<TRIPOS>BOND
   1    1    2 ar
   2    1    6 ar
   3    1   30 1
   4    2    3 ar
   5    2   31 1
   6    3    4 ar
   7    3    7 1
   8    4    5 ar
   9    4   32 1
  10    5    6 ar
  11    5   33 1
  12    6   34 1
  13    7    8 1
  14    7   14 1
  15    7   17 1
  16    8    9 ar
  17    8   13 ar
  18    9   10 ar
  19    9   35 1
  20   10   11 ar
  21   10   36 1
  22   11   12 ar
  23   11   37 1
  24   12   13 ar
  25   12   38 1
  26   13   39 1
  27   14   15 1
  28   15   16 1
  29   15   40 1
  30   15   41 1
  31   16   27 1
  32   16   23 1
  33   16   42 1
  34   17   18 ar
  35   17   19 ar
  36   18   22 ar
  37   18   43 1
  38   19   20 ar
  39   19   44 1
  40   20   21 ar
  41   20   45 1
  42   21   22 ar
  43   21   25 1
  44   22   24 1
  45   23   46 1
  46   23   47 1
  47   24   26 1
  48   24   48 1
  49   24   49 1
  50   25   50 1
  51   25   51 1
  52   25   52 1
  53   26   53 1
  54   26   54 1
  55   26   55 1
  56   27   28 2
  57   27   29 1
  58   29   56 1

#	End of record

