#	Name: ASD03092821
#	Creating user name:	WinNT
#	Creation time:	15. 06. 2019 20:33

#	Modifying user name:	WinNT
#	Modification time:	15. 06. 2019 20:33

#	Program:	/corina/corina34_cracker 3.40 0067  02.08.2006

@<TRIPOS>MOLECULE
ASD03092821
  45   47    0    0    0
SMALL
NO_CHARGES


@<TRIPOS>ATOM
   1 C1             1.8760     1.4133     0.3465 C.3     
   2 C2             1.8747    -0.1127     0.2361 C.3     
   3 C3             1.2122    -0.5224    -1.0540 C.2     
   4 O4             0.7826     0.3243    -1.8118 O.2     
   5 C5             1.0908    -1.8891    -1.3815 C.2     
   6 C6             0.5142    -2.3799    -2.5256 C.2     
   7 C7             0.5118    -3.7415    -2.6236 C.2     
   8 C8            -0.0754    -4.4692    -3.8054 C.3     
   9 C9             1.0836    -4.3939    -1.5672 C.2     
  10 S10            1.6622    -3.2237    -0.3894 S.3     
  11 C11            1.2032    -5.8608    -1.4377 C.ar    
  12 C12            1.6860    -6.6208    -2.5056 C.ar    
  13 C13            1.7979    -7.9910    -2.3853 C.ar    
  14 C14            1.4334    -8.6194    -1.2089 C.ar    
  15 Cl15           1.5779   -10.3436    -1.0672 Cl      
  16 C16            0.9500    -7.8705    -0.1346 C.ar    
  17 C17            0.8396    -6.4892    -0.2470 C.ar    
  18 C18            0.5590    -8.5472     1.1268 C.ar    
  19 C19            1.0391    -8.0802     2.3487 C.ar    
  20 C20            0.6719    -8.7130     3.5189 C.ar    
  21 C21           -0.1708    -9.8093     3.4803 C.ar    
  22 C22           -0.6500   -10.2774     2.2702 C.ar    
  23 C23           -0.2941    -9.6483     1.0943 C.ar    
  24 S24           -0.6350   -10.6127     4.9782 S.o2    
  25 N25           -2.0165    -9.8780     5.5207 N.am    
  26 O26           -0.9986   -11.9403     4.6254 O.2     
  27 O27            0.3791   -10.3105     5.9266 O.2     
  28 H28            2.4244     1.8380    -0.4944 H       
  29 H29            0.8495     1.7795     0.3329 H       
  30 H30            2.3552     1.7097     1.2796 H       
  31 H31            2.9012    -0.4789     0.2497 H       
  32 H32            1.3263    -0.5373     1.0770 H       
  33 H33            0.0951    -1.7399    -3.2880 H       
  34 H34            0.7144    -4.6964    -4.5214 H       
  35 H35           -0.5376    -5.3969    -3.4679 H       
  36 H36           -0.8279    -3.8407    -4.2818 H       
  37 H37            1.9718    -6.1353    -3.4270 H       
  38 H38            2.1714    -8.5749    -3.2135 H       
  39 H39            0.4696    -5.9056     0.5830 H       
  40 H40            1.6977    -7.2247     2.3799 H       
  41 H41            1.0434    -8.3519     4.4665 H       
  42 H42           -1.3070   -11.1341     2.2457 H       
  43 H43           -0.6726   -10.0117     0.1503 H       
  44 H44           -2.4065    -9.1464     5.0172 H       
  45 H45           -2.4356   -10.1794     6.3419 H       
@<TRIPOS>BOND
   1    1    2 1
   2    1   28 1
   3    1   29 1
   4    1   30 1
   5    2    3 1
   6    2   31 1
   7    2   32 1
   8    3    4 2
   9    3    5 1
  10    5   10 1
  11    5    6 2
  12    6    7 1
  13    6   33 1
  14    7    8 1
  15    7    9 2
  16    8   34 1
  17    8   35 1
  18    8   36 1
  19    9   10 1
  20    9   11 1
  21   11   17 ar
  22   11   12 ar
  23   12   13 ar
  24   12   37 1
  25   13   14 ar
  26   13   38 1
  27   14   15 1
  28   14   16 ar
  29   16   17 ar
  30   16   18 1
  31   17   39 1
  32   18   23 ar
  33   18   19 ar
  34   19   20 ar
  35   19   40 1
  36   20   21 ar
  37   20   41 1
  38   21   22 ar
  39   21   24 1
  40   22   23 ar
  41   22   42 1
  42   23   43 1
  43   24   25 am
  44   24   26 2
  45   24   27 2
  46   25   44 1
  47   25   45 1

#	End of record

