#	Name: ASD01410074
#	Creating user name:	WinNT
#	Creation time:	15. 06. 2019 19:16

#	Modifying user name:	WinNT
#	Modification time:	15. 06. 2019 19:16

#	Program:	/corina/corina34_cracker 3.40 0067  02.08.2006

@<TRIPOS>MOLECULE
ASD01410074
  70   74    0    0    0
SMALL
NO_CHARGES


@<TRIPOS>ATOM
   1 C1            -0.0169     1.3986     0.0097 C.ar    
   2 C2             0.0021    -0.0041     0.0020 C.ar    
   3 C3            -1.1621    -0.7093     0.0098 C.ar    
   4 C4            -2.3912    -0.0347     0.0256 C.ar    
   5 C5            -2.4204     1.3752     0.0335 C.ar    
   6 C6            -1.2306     2.0850     0.0308 C.ar    
   7 C7            -3.7374    -0.4721     0.0371 C.2     
   8 C8            -4.5318     0.6284     0.0511 C.2     
   9 N9            -3.7466     1.7567     0.0491 N.pl3   
  10 C10           -6.0102     0.6156     0.0653 C.ar    
  11 C11           -6.7099     1.4581     0.9306 C.ar    
  12 C12           -8.0891     1.4421     0.9389 C.ar    
  13 C13           -8.7795     0.5923     0.0911 C.ar    
  14 C14           -8.0908    -0.2458    -0.7696 C.ar    
  15 C15           -6.7117    -0.2349    -0.7907 C.ar    
  16 C16           -4.2053    -1.9046     0.0342 C.3     
  17 C17           -3.6904    -2.6068    -1.2239 C.3     
  18 C18           -4.1655    -4.0612    -1.2268 C.3     
  19 C19           -3.6260    -4.7764     0.0134 C.3     
  20 C20           -4.1409    -4.0743     1.2715 C.3     
  21 C21           -3.6658    -2.6199     1.2744 C.3     
  22 C22            1.2512     2.1499     0.0017 C.2     
  23 O23            2.4257     1.4892    -0.0131 O.3     
  24 C24           -4.2369     3.1372     0.0616 C.3     
  25 C25           -4.3905     3.6029     1.4866 C.2     
  26 N26           -4.8315     4.8502     1.7441 N.am    
  27 O27            1.2376     3.3650     0.0083 O.2     
  28 O28           -4.1172     2.8553     2.4016 O.2     
  29 C29           -5.2065     5.8810     0.7582 C.3     
  30 C30           -6.2080     6.8249     1.4493 C.3     
  31 C31           -6.3445     6.2801     2.8898 C.3     
  32 C32           -5.0448     5.4639     3.0751 C.3     
  33 N33           -6.4119     7.3823     3.8586 N.3     
  34 C34           -7.5854     8.2304     3.6104 C.3     
  35 C35           -6.4125     6.8729     5.2365 C.3     
  36 Cl36         -10.5154     0.5773     0.1076 Cl      
  37 H37            0.9465    -0.5278    -0.0105 H       
  38 H38           -1.1391    -1.7891     0.0034 H       
  39 H39           -1.2431     3.1650     0.0368 H       
  40 H40           -6.1724     2.1210     1.5925 H       
  41 H41           -8.6316     2.0933     1.6083 H       
  42 H42           -8.6346    -0.9064    -1.4286 H       
  43 H43           -6.1756    -0.8890    -1.4624 H       
  44 H44           -5.2950    -1.9310     0.0448 H       
  45 H45           -4.0748    -2.0973    -2.1075 H       
  46 H46           -2.6008    -2.5805    -1.2345 H       
  47 H47           -5.2551    -4.0875    -1.2163 H       
  48 H48           -3.7987    -4.5614    -2.1231 H       
  49 H49           -3.9644    -5.8126     0.0113 H       
  50 H50           -2.5363    -4.7501     0.0028 H       
  51 H51           -5.2305    -4.1006     1.2821 H       
  52 H52           -3.7565    -4.5838     2.1551 H       
  53 H53           -2.5762    -2.5936     1.2638 H       
  54 H54           -4.0326    -2.1197     2.1707 H       
  55 H55            3.2307     2.0250    -0.0179 H       
  56 H56           -3.5252     3.7803    -0.4561 H       
  57 H57           -5.2024     3.1844    -0.4421 H       
  58 H58           -4.3223     6.4390     0.4500 H       
  59 H59           -5.6742     5.4134    -0.1082 H       
  60 H60           -5.8197     7.8433     1.4648 H       
  61 H61           -7.1711     6.7938     0.9398 H       
  62 H62           -7.2182     5.6342     2.9770 H       
  63 H63           -5.1777     4.6968     3.8380 H       
  64 H64           -4.2117     6.1196     3.3286 H       
  65 H65           -8.4918     7.6315     3.6988 H       
  66 H66           -7.6110     9.0384     4.3416 H       
  67 H67           -7.5241     8.6507     2.6065 H       
  68 H68           -5.4986     6.3062     5.4147 H       
  69 H69           -6.4630     7.7096     5.9332 H       
  70 H70           -7.2765     6.2248     5.3838 H       
@<TRIPOS>BOND
   1    1    2 ar
   2    1   22 1
   3    1    6 ar
   4    2    3 ar
   5    2   37 1
   6    3    4 ar
   7    3   38 1
   8    4    5 ar
   9    4    7 1
  10    5    6 ar
  11    5    9 1
  12    6   39 1
  13    7    8 2
  14    7   16 1
  15    8    9 1
  16    8   10 1
  17    9   24 1
  18   10   11 ar
  19   10   15 ar
  20   11   12 ar
  21   11   40 1
  22   12   13 ar
  23   12   41 1
  24   13   14 ar
  25   13   36 1
  26   14   15 ar
  27   14   42 1
  28   15   43 1
  29   16   17 1
  30   16   21 1
  31   16   44 1
  32   17   18 1
  33   17   45 1
  34   17   46 1
  35   18   19 1
  36   18   47 1
  37   18   48 1
  38   19   20 1
  39   19   49 1
  40   19   50 1
  41   20   21 1
  42   20   51 1
  43   20   52 1
  44   21   53 1
  45   21   54 1
  46   22   23 1
  47   22   27 2
  48   23   55 1
  49   24   25 1
  50   24   56 1
  51   24   57 1
  52   25   26 am
  53   25   28 2
  54   26   29 1
  55   26   32 1
  56   29   30 1
  57   29   58 1
  58   29   59 1
  59   30   31 1
  60   30   60 1
  61   30   61 1
  62   31   32 1
  63   31   33 1
  64   31   62 1
  65   32   63 1
  66   32   64 1
  67   33   34 1
  68   33   35 1
  69   34   65 1
  70   34   66 1
  71   34   67 1
  72   35   68 1
  73   35   69 1
  74   35   70 1

#	End of record

