#	Name: ASD02030063
#	Creating user name:	WinNT
#	Creation time:	15. 06. 2019 20:14

#	Modifying user name:	WinNT
#	Modification time:	15. 06. 2019 20:14

#	Program:	/corina/corina34_cracker 3.40 0067  02.08.2006

@<TRIPOS>MOLECULE
ASD02030063
  59   62    0    0    0
SMALL
NO_CHARGES


@<TRIPOS>ATOM
   1 O1            -0.3263     2.0994    -1.1255 O.3     
   2 N2           -10.4175    -8.3564    -3.6274 N.am    
   3 C3            -9.1621    -7.8876    -3.7713 C.2     
   4 N4            -8.1552    -8.4272    -3.0561 N.am    
   5 C5            -6.8422    -8.0175    -3.2821 C.ar    
   6 O6            -8.9379    -6.9780    -4.5463 O.2     
   7 C7            -6.4393    -7.6542    -4.5636 C.ar    
   8 C8            -5.1437    -7.2488    -4.7904 C.ar    
   9 C9            -4.2320    -7.2020    -3.7313 C.ar    
  10 C10           -4.6404    -7.5677    -2.4451 C.ar    
  11 C11           -5.9390    -7.9671    -2.2247 C.ar    
  12 C12           -2.8432    -6.7686    -3.9705 C.2     
  13 O13           -1.9658    -6.7241    -2.9486 O.3     
  14 O14           -2.4897    -6.4515    -5.0889 O.2     
  15 C15           -0.6158    -6.2879    -3.2574 C.3     
  16 C16            0.2800    -7.5025    -3.6058 C.3     
  17 C17            1.7044    -6.9747    -3.3032 C.3     
  18 C18            1.5262    -6.1081    -2.0394 C.3     
  19 C19            0.0510    -5.6715    -2.0103 C.3     
  20 N20           -0.0410    -4.2103    -2.0626 N.am    
  21 C21            0.0247    -3.4898    -0.9254 C.2     
  22 O22            0.1602    -4.0526     0.1438 O.2     
  23 C23           -0.0680    -2.0176    -0.9781 C.ar    
  24 C24           -0.0001    -1.2689     0.1997 C.ar    
  25 C25           -0.0865     0.1044     0.1463 C.ar    
  26 C26           -0.2410     0.7458    -1.0771 C.ar    
  27 C27           -0.3089     0.0046    -2.2510 C.ar    
  28 C28           -0.2180    -1.3687    -2.2065 C.ar    
  29 C29          -11.4796    -7.7253    -4.2846 C.ar    
  30 C30          -12.5628    -8.4707    -4.7313 C.ar    
  31 C31          -13.6095    -7.8449    -5.3796 C.ar    
  32 C32          -13.5794    -6.4777    -5.5845 C.ar    
  33 C33          -12.5022    -5.7326    -5.1409 C.ar    
  34 C34          -11.4552    -6.3516    -4.4864 C.ar    
  35 H35            0.5269     2.5440    -1.2230 H       
  36 H36          -10.5848    -9.1312    -3.0683 H       
  37 H37           -8.3442    -9.1006    -2.3841 H       
  38 H38           -7.1439    -7.6909    -5.3812 H       
  39 H39           -4.8316    -6.9673    -5.7853 H       
  40 H40           -3.9388    -7.5331    -1.6248 H       
  41 H41           -6.2552    -8.2494    -1.2314 H       
  42 H42           -0.6257    -5.5728    -4.0799 H       
  43 H43            0.0404    -8.3544    -2.9694 H       
  44 H44            0.1813    -7.7658    -4.6589 H       
  45 H45            2.3841    -7.8033    -3.1048 H       
  46 H46            2.0710    -6.3693    -4.1322 H       
  47 H47            1.7601    -6.6928    -1.1498 H       
  48 H48            2.1736    -5.2329    -2.0925 H       
  49 H49           -0.4310    -6.0443    -1.1065 H       
  50 H50           -0.1492    -3.7614    -2.9156 H       
  51 H51            0.1196    -1.7666     1.1507 H       
  52 H52           -0.0345     0.6838     1.0562 H       
  53 H53           -0.4294     0.5067    -3.1996 H       
  54 H54           -0.2706    -1.9439    -3.1191 H       
  55 H55          -12.5866    -9.5386    -4.5721 H       
  56 H56          -14.4522    -8.4240    -5.7272 H       
  57 H57          -14.3988    -5.9907    -6.0924 H       
  58 H58          -12.4816    -4.6650    -5.3025 H       
  59 H59          -10.6142    -5.7692    -4.1403 H       
@<TRIPOS>BOND
   1    1   26 1
   2    1   35 1
   3    2    3 am
   4    2   29 1
   5    2   36 1
   6    3    4 am
   7    3    6 2
   8    4    5 1
   9    4   37 1
  10    5    7 ar
  11    5   11 ar
  12    7    8 ar
  13    7   38 1
  14    8    9 ar
  15    8   39 1
  16    9   10 ar
  17    9   12 1
  18   10   11 ar
  19   10   40 1
  20   11   41 1
  21   12   13 1
  22   12   14 2
  23   13   15 1
  24   15   16 1
  25   15   19 1
  26   15   42 1
  27   16   17 1
  28   16   43 1
  29   16   44 1
  30   17   18 1
  31   17   45 1
  32   17   46 1
  33   18   19 1
  34   18   47 1
  35   18   48 1
  36   19   20 1
  37   19   49 1
  38   20   21 am
  39   20   50 1
  40   21   22 2
  41   21   23 1
  42   23   24 ar
  43   23   28 ar
  44   24   25 ar
  45   24   51 1
  46   25   26 ar
  47   25   52 1
  48   26   27 ar
  49   27   28 ar
  50   27   53 1
  51   28   54 1
  52   29   30 ar
  53   29   34 ar
  54   30   31 ar
  55   30   55 1
  56   31   32 ar
  57   31   56 1
  58   32   33 ar
  59   32   57 1
  60   33   34 ar
  61   33   58 1
  62   34   59 1

#	End of record

