#	Name: ASD01870413
#	Creating user name:	WinNT
#	Creation time:	15. 06. 2019 19:39

#	Modifying user name:	WinNT
#	Modification time:	15. 06. 2019 19:39

#	Program:	/corina/corina34_cracker 3.40 0067  02.08.2006

@<TRIPOS>MOLECULE
ASD01870413
  29   31    0    0    0
SMALL
NO_CHARGES


@<TRIPOS>ATOM
   1 C1            -0.0162     1.3436     0.0094 C.2     
   2 N2             0.0021    -0.0041     0.0020 N.am    
   3 O3             1.0285     1.9658     0.0028 O.2     
   4 C4             1.2109    -0.6803    -0.0132 C.2     
   5 O5             2.4264    -0.1114    -0.0212 O.3     
   6 C6             3.3441    -1.1018    -0.0355 C.2     
   7 C7             2.6747    -2.2648    -0.0359 C.2     
   8 N8             1.3588    -1.9817    -0.0163 N.2     
   9 C9            -1.3030     2.0633     0.0194 C.ar    
  10 C10           -1.3307     3.4805     0.0273 C.ar    
  11 C11           -2.5796     4.1478     0.0369 C.ar    
  12 C12           -3.7677     3.3943     0.0385 C.ar    
  13 C13           -3.7152     2.0330     0.0308 C.ar    
  14 C14           -2.4989     1.3607     0.0156 C.ar    
  15 N15           -0.2011     4.1917     0.0252 N.ar    
  16 C16           -0.2577     5.5050     0.0323 C.ar    
  17 C17           -1.4887     6.1643     0.0423 C.ar    
  18 N18           -2.6127     5.4850     0.0440 N.ar    
  19 C19            3.2868    -3.6418    -0.0504 C.3     
  20 H20           -0.8313    -0.5005     0.0073 H       
  21 H21            4.4172    -0.9806    -0.0452 H       
  22 H22           -4.7239     3.8963     0.0462 H       
  23 H23           -4.6347     1.4665     0.0325 H       
  24 H24           -2.4848     0.2809     0.0051 H       
  25 H25            0.6567     6.0797     0.0306 H       
  26 H26           -1.5167     7.2439     0.0484 H       
  27 H27            3.4445    -3.9801     0.9737 H       
  28 H28            2.6160    -4.3322    -0.5618 H       
  29 H29            4.2425    -3.6092    -0.5735 H       
@<TRIPOS>BOND
   1    1    2 am
   2    1    3 2
   3    1    9 1
   4    2    4 1
   5    2   20 1
   6    4    5 1
   7    4    8 2
   8    5    6 1
   9    6    7 2
  10    6   21 1
  11    7    8 1
  12    7   19 1
  13    9   10 ar
  14    9   14 ar
  15   10   15 ar
  16   10   11 ar
  17   11   12 ar
  18   11   18 ar
  19   12   13 ar
  20   12   22 1
  21   13   14 ar
  22   13   23 1
  23   14   24 1
  24   15   16 ar
  25   16   17 ar
  26   16   25 1
  27   17   18 ar
  28   17   26 1
  29   19   27 1
  30   19   28 1
  31   19   29 1

#	End of record

