#	Name: ASD05720026
#	Creating user name:	WinNT
#	Creation time:	15. 06. 2019 21:01

#	Modifying user name:	WinNT
#	Modification time:	15. 06. 2019 21:01

#	Program:	/corina/corina34_cracker 3.40 0067  02.08.2006

@<TRIPOS>MOLECULE
ASD05720026
  95  100    0    0    0
SMALL
NO_CHARGES


@<TRIPOS>ATOM
   1 N1             3.0047     2.2763     0.6032 N.am    
   2 C2             2.5816     0.9112     0.2562 C.3     
   3 C3             3.5722     0.3947     1.3088 C.3     
   4 C4             4.3005     1.7125     1.0106 C.3     
   5 C5             2.4509     3.5042     0.5608 C.2     
   6 O6             1.3162     3.6451     0.1496 O.2     
   7 O7             3.1549     4.5749     0.9742 O.3     
   8 C8             2.5263     1.3339     3.3675 C.2     
   9 N9             2.0794     0.9930     4.5834 N.am    
  10 C10            2.2715    -0.4514     4.7812 C.3     
  11 C11            2.9162    -0.9221     3.4631 C.3     
  12 N12            3.0190     0.3071     2.6625 N.am    
  13 O13            2.4840     2.4714     2.9406 O.2     
  14 C14            0.9264    -1.1471     4.9996 C.3     
  15 C15            0.3114    -0.6665     6.3155 C.3     
  16 C16           -0.0162    -0.8093     3.8428 C.3     
  17 C17            0.7201     2.2719     7.6360 C.2     
  18 N18            1.2551     1.4457     6.7321 N.2     
  19 C19            1.5232     1.8650     5.5096 C.2     
  20 C20            1.2454     3.1978     5.1442 C.2     
  21 C21            0.7039     4.0366     6.0566 C.2     
  22 N22            0.4375     3.5730     7.3149 N.pl3   
  23 N23           -0.1086     4.1874     8.4474 N.2     
  24 C24           -0.1655     3.3186     9.4264 C.2     
  25 C25            0.3380     2.0928     8.9727 C.2     
  26 C26            0.4480     0.8438     9.7578 C.ar    
  27 C27            1.0427     0.8638    11.0210 C.ar    
  28 C28            1.1452    -0.3001    11.7525 C.ar    
  29 C29            0.6529    -1.5004    11.2279 C.ar    
  30 C30            0.0585    -1.5175     9.9641 C.ar    
  31 C31           -0.0482    -0.3538     9.2376 C.ar    
  32 N32           -0.2298    -3.6435    12.2281 N.pl3   
  33 N33            0.3267    -4.6632    13.0172 N.2     
  34 C34            1.5775    -4.3449    13.2273 C.2     
  35 N35            1.8438    -3.1909    12.6215 N.2     
  36 C36            0.7623    -2.7489    12.0102 C.2     
  37 C37           -1.6069    -3.5666    11.7343 C.3     
  38 O38           -2.3886    -2.7682    12.6253 O.3     
  39 C39           -3.7556    -2.6287    12.2331 C.3     
  40 C40           -4.4928    -1.7595    13.2539 C.3     
  41 Si41          -6.2750    -1.5776    12.7427 Si      
  42 C42           -7.0740    -3.2588    12.6666 C.3     
  43 C43           -7.1726    -0.5192    13.9857 C.3     
  44 C44           -6.3607    -0.7727    11.0647 C.3     
  45 F45            1.7209    -0.2821    12.9746 F       
  46 C46            2.4951     5.8662     0.9003 C.3     
  47 C47            1.2336     5.8446     1.7658 C.3     
  48 C48            3.4439     6.9535     1.4087 C.3     
  49 C49            2.1126     6.1612    -0.5515 C.3     
  50 H50            1.5400     0.7040     0.5018 H       
  51 H51            2.8405     0.6222    -0.7624 H       
  52 H52            4.1207    -0.4974     1.0065 H       
  53 H53            5.0173     1.6370     0.1929 H       
  54 H54            4.7206     2.1867     1.8976 H       
  55 H55            2.9402    -0.6369     5.6218 H       
  56 H56            3.9050    -1.3413     3.6491 H       
  57 H57            2.2781    -1.6515     2.9641 H       
  58 H58            1.0778    -2.2257     5.0418 H       
  59 H59           -0.0377     0.3596     6.2001 H       
  60 H60           -0.5288    -1.3087     6.5798 H       
  61 H61            1.0626    -0.7082     7.1043 H       
  62 H62           -0.1676     0.2693     3.8005 H       
  63 H63            0.4219    -1.1517     2.9052 H       
  64 H64           -0.9745    -1.3050     3.9983 H       
  65 H65            1.4631     3.5460     4.1453 H       
  66 H66            0.4848     5.0611     5.7944 H       
  67 H67           -0.5422     3.5145    10.4194 H       
  68 H68            1.4226     1.7907    11.4246 H       
  69 H69           -0.3213    -2.4437     9.5587 H       
  70 H70           -0.5123    -0.3671     8.2625 H       
  71 H71            2.2828    -4.9267    13.8022 H       
  72 H72           -1.6125    -3.1151    10.7422 H       
  73 H73           -2.0298    -4.5697    11.6794 H       
  74 H74           -3.8057    -2.1578    11.2514 H       
  75 H75           -4.2231    -3.6124    12.1886 H       
  76 H76           -4.4427    -2.2304    14.2357 H       
  77 H77           -4.0253    -0.7758    13.2985 H       
  78 H78           -7.0238    -3.7297    13.6483 H       
  79 H79           -8.1167    -3.1524    12.3675 H       
  80 H80           -6.5488    -3.8781    11.9394 H       
  81 H81           -6.7052     0.4645    14.0302 H       
  82 H82           -8.2154    -0.4127    13.6866 H       
  83 H83           -7.1225    -0.9901    14.9674 H       
  84 H84           -5.8355    -1.3920    10.3375 H       
  85 H85           -7.4034    -0.6663    10.7656 H       
  86 H86           -5.8933     0.2110    11.1093 H       
  87 H87            1.5061     5.6345     2.8000 H       
  88 H88            0.7383     6.8140     1.7103 H       
  89 H89            0.5577     5.0700     1.4035 H       
  90 H90            4.3426     6.9689     0.7922 H       
  91 H91            2.9486     7.9229     1.3533 H       
  92 H92            3.7163     6.7434     2.4430 H       
  93 H93            1.4367     5.3866    -0.9137 H       
  94 H94            1.6173     7.1306    -0.6069 H       
  95 H95            3.0113     6.1765    -1.1680 H       
@<TRIPOS>BOND
   1    1    2 1
   2    1    4 1
   3    1    5 am
   4    2    3 1
   5    2   50 1
   6    2   51 1
   7    3    4 1
   8    3   12 1
   9    3   52 1
  10    4   53 1
  11    4   54 1
  12    5    6 2
  13    5    7 1
  14    7   46 1
  15    8    9 am
  16    8   12 am
  17    8   13 2
  18    9   10 1
  19    9   19 1
  20   10   11 1
  21   10   14 1
  22   10   55 1
  23   11   12 1
  24   11   56 1
  25   11   57 1
  26   14   15 1
  27   14   16 1
  28   14   58 1
  29   15   59 1
  30   15   60 1
  31   15   61 1
  32   16   62 1
  33   16   63 1
  34   16   64 1
  35   17   18 1
  36   17   22 1
  37   17   25 2
  38   18   19 2
  39   19   20 1
  40   20   21 2
  41   20   65 1
  42   21   22 1
  43   21   66 1
  44   22   23 1
  45   23   24 2
  46   24   25 1
  47   24   67 1
  48   25   26 1
  49   26   27 ar
  50   26   31 ar
  51   27   28 ar
  52   27   68 1
  53   28   29 ar
  54   28   45 1
  55   29   30 ar
  56   29   36 1
  57   30   31 ar
  58   30   69 1
  59   31   70 1
  60   32   33 1
  61   32   36 1
  62   32   37 1
  63   33   34 2
  64   34   35 1
  65   34   71 1
  66   35   36 2
  67   37   38 1
  68   37   72 1
  69   37   73 1
  70   38   39 1
  71   39   40 1
  72   39   74 1
  73   39   75 1
  74   40   41 1
  75   40   76 1
  76   40   77 1
  77   41   42 1
  78   41   43 1
  79   41   44 1
  80   42   78 1
  81   42   79 1
  82   42   80 1
  83   43   81 1
  84   43   82 1
  85   43   83 1
  86   44   84 1
  87   44   85 1
  88   44   86 1
  89   46   47 1
  90   46   49 1
  91   46   48 1
  92   47   87 1
  93   47   88 1
  94   47   89 1
  95   48   90 1
  96   48   91 1
  97   48   92 1
  98   49   93 1
  99   49   94 1
 100   49   95 1

#	End of record

