#	Name: ASD01815965
#	Creating user name:	WinNT
#	Creation time:	15. 06. 2019 19:34

#	Modifying user name:	WinNT
#	Modification time:	15. 06. 2019 19:34

#	Program:	/corina/corina34_cracker 3.40 0067  02.08.2006

@<TRIPOS>MOLECULE
ASD01815965
  65   71    0    0    0
SMALL
NO_CHARGES


@<TRIPOS>ATOM
   1 C1            -0.0168     1.3813    -0.0545 C.ar    
   2 C2             0.0020    -0.0038    -0.0613 C.ar    
   3 C3             1.1998    -0.6916    -0.0548 C.ar    
   4 C4             2.4048     0.0058    -0.0416 C.ar    
   5 C5             2.3827     1.4099    -0.0352 C.ar    
   6 C6             1.1681     2.0925    -0.0415 C.ar    
   7 N7             3.6091    -0.6782    -0.0345 N.pl3   
   8 C8             4.8006    -0.0600    -0.0214 C.2     
   9 C9             4.9035     1.3090    -0.0141 C.2     
  10 C10            3.6706     2.1290    -0.0213 C.2     
  11 C11            6.0006     2.2715     0.0002 C.2     
  12 N12            5.4282     3.4947     0.0007 N.am    
  13 N13            4.0359     3.3789    -0.0123 N.2     
  14 C14            6.1302     4.7067     0.0122 C.ar    
  15 O15            7.1950     2.0213     0.0103 O.2     
  16 C16            3.5814    -2.1429    -0.0411 C.3     
  17 C17            3.4352    -2.6362    -1.4576 C.ar    
  18 C18            4.5687    -2.8817    -2.2148 C.ar    
  19 C19            4.4277    -3.3358    -3.5173 C.ar    
  20 C20            3.1368    -3.5284    -4.0153 C.ar    
  21 C21            2.0476    -3.2583    -3.1888 C.ar    
  22 N22            2.2298    -2.8329    -1.9557 N.ar    
  23 F23            1.1487     3.4433    -0.0353 F       
  24 F24            1.2021    -2.0426    -0.0607 F       
  25 C25            6.5799     5.2618    -1.1783 C.ar    
  26 C26            7.2720     6.4570    -1.1639 C.ar    
  27 C27            7.5178     7.1021     0.0345 C.ar    
  28 C28            7.0722     6.5536     1.2229 C.ar    
  29 C29            6.3736     5.3599     1.2157 C.ar    
  30 F30            5.9380     4.8238     2.3768 F       
  31 F31            5.7974    -2.6804    -1.6906 F       
  32 C32            2.9285    -4.0124    -5.4023 C.ar    
  33 C33            4.0171    -4.2813    -6.2265 C.ar    
  34 N34            3.8374    -4.7119    -7.4593 N.ar    
  35 C35            2.6268    -4.9048    -7.9605 C.ar    
  36 C36            1.4897    -4.6574    -7.1960 C.ar    
  37 C37            1.6345    -4.2104    -5.8978 C.ar    
  38 N38            2.4897    -5.3595    -9.2660 N.3     
  39 C39            3.8033    -5.5569    -9.8958 C.3     
  40 C40            1.6641    -4.4385   -10.0607 C.3     
  41 C41            1.4897    -5.0064   -11.4717 C.3     
  42 O42            2.7772    -5.2209   -12.0563 O.3     
  43 C43            3.6075    -6.1136   -11.3085 C.3     
  44 H44           -0.9601     1.9070    -0.0639 H       
  45 H45           -0.9289    -0.5512    -0.0715 H       
  46 H46            5.7018    -0.6551    -0.0161 H       
  47 H47            4.5097    -2.5258     0.3829 H       
  48 H48            2.7383    -2.4931     0.5544 H       
  49 H49            5.2937    -3.5352    -4.1312 H       
  50 H50            1.0445    -3.4027    -3.5619 H       
  51 H51            6.3891     4.7591    -2.1150 H       
  52 H52            7.6220     6.8885    -2.0900 H       
  53 H53            8.0596     8.0363     0.0421 H       
  54 H54            7.2661     7.0597     2.1570 H       
  55 H55            5.0196    -4.1353    -5.8522 H       
  56 H56            0.5060    -4.8170    -7.6123 H       
  57 H57            0.7700    -4.0105    -5.2821 H       
  58 H58            4.3281    -4.6031    -9.9499 H       
  59 H59            4.3881    -6.2617    -9.3048 H       
  60 H60            0.6874    -4.3269    -9.5900 H       
  61 H61            2.1547    -3.4668   -10.1174 H       
  62 H62            0.9515    -5.9528   -11.4193 H       
  63 H63            0.9264    -4.2999   -12.0813 H       
  64 H64            4.5758    -6.2078   -11.8001 H       
  65 H65            3.1309    -7.0921   -11.2513 H       
@<TRIPOS>BOND
   1    1    2 ar
   2    1    6 ar
   3    1   44 1
   4    2    3 ar
   5    2   45 1
   6    3    4 ar
   7    3   24 1
   8    4    5 ar
   9    4    7 1
  10    5    6 ar
  11    5   10 1
  12    6   23 1
  13    7    8 1
  14    7   16 1
  15    8    9 2
  16    8   46 1
  17    9   10 1
  18    9   11 1
  19   10   13 2
  20   11   12 am
  21   11   15 2
  22   12   13 1
  23   12   14 1
  24   14   25 ar
  25   14   29 ar
  26   16   17 1
  27   16   47 1
  28   16   48 1
  29   17   18 ar
  30   17   22 ar
  31   18   19 ar
  32   18   31 1
  33   19   20 ar
  34   19   49 1
  35   20   21 ar
  36   20   32 1
  37   21   22 ar
  38   21   50 1
  39   25   26 ar
  40   25   51 1
  41   26   27 ar
  42   26   52 1
  43   27   28 ar
  44   27   53 1
  45   28   29 ar
  46   28   54 1
  47   29   30 1
  48   32   33 ar
  49   32   37 ar
  50   33   34 ar
  51   33   55 1
  52   34   35 ar
  53   35   36 ar
  54   35   38 1
  55   36   37 ar
  56   36   56 1
  57   37   57 1
  58   38   39 1
  59   38   40 1
  60   39   43 1
  61   39   58 1
  62   39   59 1
  63   40   41 1
  64   40   60 1
  65   40   61 1
  66   41   42 1
  67   41   62 1
  68   41   63 1
  69   42   43 1
  70   43   64 1
  71   43   65 1

#	End of record

