#	Name: ASD08150674
#	Creating user name:	WinNT
#	Creation time:	15. 06. 2019 21:16

#	Modifying user name:	WinNT
#	Modification time:	15. 06. 2019 21:16

#	Program:	/corina/corina34_cracker 3.40 0067  02.08.2006

@<TRIPOS>MOLECULE
ASD08150674
  49   53    0    0    0
SMALL
NO_CHARGES


@<TRIPOS>ATOM
   1 C1            -0.0174     1.3320     0.1142 C.2     
   2 N2            -0.0006     0.0026     0.2072 N.2     
   3 C3             1.1325    -0.6707     0.2944 C.2     
   4 C4             2.3481     0.0115     0.2905 C.2     
   5 C5             2.3333     1.4189     0.1923 C.2     
   6 N6             1.1443     2.0532     0.1052 N.am    
   7 C7            -1.2508     2.0012     0.0181 C.2     
   8 C8            -1.2710     3.3608    -0.0771 C.2     
   9 C9            -0.0632     4.0721    -0.0779 C.2     
  10 C10            1.1134     3.4118     0.0089 C.2     
  11 O11            3.3764     2.0517     0.1856 O.2     
  12 C12            3.6288    -0.7259     0.3880 C.ar    
  13 C13            4.5289    -0.7099    -0.6775 C.ar    
  14 C14            5.7207    -1.3985    -0.5804 C.ar    
  15 C15            6.0234    -2.1041     0.5704 C.ar    
  16 C16            5.1348    -2.1238     1.6306 C.ar    
  17 C17            3.9424    -1.4345     1.5479 C.ar    
  18 C18            2.4054     4.1875     0.0008 C.3     
  19 C19            1.1111    -2.1739     0.3985 C.3     
  20 C20            0.3388    -2.5873     1.6530 C.3     
  21 N21           -1.0755    -3.1575    -2.2819 N.2     
  22 C22           -0.8228    -2.4957    -1.1902 C.2     
  23 N23            0.4564    -2.7361    -0.7853 N.pl3   
  24 C24            1.0186    -3.6008    -1.6902 C.ar    
  25 N25            2.2074    -4.1801    -1.8209 N.ar    
  26 C26            2.4523    -4.9887    -2.8305 C.ar    
  27 N27            1.5487    -5.2646    -3.7530 N.ar    
  28 C28            0.3319    -4.7321    -3.7056 C.ar    
  29 C29            0.0224    -3.8627    -2.6461 C.ar    
  30 N30           -0.6084    -5.0269    -4.6773 N.pl3   
  31 H31           -2.1748     1.4420     0.0194 H       
  32 H32           -2.2115     3.8865    -0.1518 H       
  33 H33           -0.0722     5.1495    -0.1534 H       
  34 H34            4.2934    -0.1600    -1.5766 H       
  35 H35            6.4184    -1.3869    -1.4047 H       
  36 H36            6.9572    -2.6421     0.6414 H       
  37 H37            5.3765    -2.6768     2.5262 H       
  38 H38            3.2514    -1.4470     2.3778 H       
  39 H39            3.0126     3.8732    -0.8481 H       
  40 H40            2.1892     5.2526    -0.0818 H       
  41 H41            2.9489     3.9977     0.9264 H       
  42 H42            2.1328    -2.5484     0.4610 H       
  43 H43            0.8259    -2.1690     2.5338 H       
  44 H44           -0.6829    -2.2128     1.5905 H       
  45 H45            0.3233    -3.6746     1.7283 H       
  46 H46           -1.5233    -1.8509    -0.6804 H       
  47 H47            3.4290    -5.4432    -2.9073 H       
  48 H48           -0.3826    -5.6284    -5.4040 H       
  49 H49           -1.4932    -4.6320    -4.6317 H       
@<TRIPOS>BOND
   1    1    2 2
   2    1    6 1
   3    1    7 1
   4    2    3 1
   5    3    4 2
   6    3   19 1
   7    4    5 1
   8    4   12 1
   9    5    6 am
  10    5   11 2
  11    6   10 1
  12    7    8 2
  13    7   31 1
  14    8    9 1
  15    8   32 1
  16    9   10 2
  17    9   33 1
  18   10   18 1
  19   12   13 ar
  20   12   17 ar
  21   13   14 ar
  22   13   34 1
  23   14   15 ar
  24   14   35 1
  25   15   16 ar
  26   15   36 1
  27   16   17 ar
  28   16   37 1
  29   17   38 1
  30   18   39 1
  31   18   40 1
  32   18   41 1
  33   19   20 1
  34   19   23 1
  35   19   42 1
  36   20   43 1
  37   20   44 1
  38   20   45 1
  39   21   22 2
  40   21   29 1
  41   22   23 1
  42   22   46 1
  43   23   24 1
  44   24   25 ar
  45   24   29 ar
  46   25   26 ar
  47   26   27 ar
  48   26   47 1
  49   27   28 ar
  50   28   29 ar
  51   28   30 1
  52   30   48 1
  53   30   49 1

#	End of record

