#	Name: ASD01884720
#	Creating user name:	WinNT
#	Creation time:	15. 06. 2019 19:48

#	Modifying user name:	WinNT
#	Modification time:	15. 06. 2019 19:48

#	Program:	/corina/corina34_cracker 3.40 0067  02.08.2006

@<TRIPOS>MOLECULE
ASD01884720
  41   43    0    0    0
SMALL
NO_CHARGES


@<TRIPOS>ATOM
   1 C1            -0.0168     1.3861     0.0097 C.2     
   2 C2             0.0021    -0.0041     0.0020 C.2     
   3 C3            -1.2195    -0.6996     0.0099 C.2     
   4 C4            -2.4055     0.0015     0.0249 C.2     
   5 N5            -2.4135     1.3554     0.0318 N.am    
   6 C6            -1.2663     2.0589     0.0311 C.2     
   7 O7            -1.3005     3.2774     0.0381 O.2     
   8 C8            -3.6939     2.0672     0.0474 C.3     
   9 C9             1.2076     2.1287     0.0020 C.1     
  10 N10            2.1789     2.7178    -0.0041 N.1     
  11 C11           -4.1261     2.3077     1.4952 C.3     
  12 C12           -5.4633     3.0511     1.5114 C.3     
  13 C13           -6.5499     2.1593     0.9074 C.3     
  14 C14           -5.8346     3.4015     2.9537 C.3     
  15 C15           -1.2316    -2.1841     0.0015 C.ar    
  16 C16           -0.7402    -2.8724    -1.0958 C.ar    
  17 C17           -0.7562    -4.2704    -1.0935 C.ar    
  18 C18           -1.2700    -4.9622     0.0206 C.ar    
  19 C19           -1.7590    -4.2471     1.1124 C.ar    
  20 C20           -1.7343    -2.8839     1.1050 C.ar    
  21 C21           -0.3321    -5.2890    -2.0494 C.2     
  22 N22           -0.5825    -6.4547    -1.5255 N.2     
  23 N23           -1.1564    -6.2996    -0.2596 N.pl3   
  24 H24            0.9394    -0.5405    -0.0101 H       
  25 H25           -3.3420    -0.5365     0.0310 H       
  26 H26           -3.5838     3.0242    -0.4627 H       
  27 H27           -4.4486     1.4685    -0.4625 H       
  28 H28           -4.2362     1.3508     2.0052 H       
  29 H29           -3.3714     2.9065     2.0050 H       
  30 H30           -5.3773     3.9664     0.9257 H       
  31 H31           -6.6359     1.2441     1.4930 H       
  32 H32           -7.5026     2.6889     0.9189 H       
  33 H33           -6.2855     1.9097    -0.1202 H       
  34 H34           -5.0604     4.0369     3.3840 H       
  35 H35           -6.7872     3.9311     2.9653 H       
  36 H36           -5.9205     2.4863     3.5394 H       
  37 H37           -0.3484    -2.3336    -1.9459 H       
  38 H38           -2.1541    -4.7741     1.9683 H       
  39 H39           -2.1153    -2.3380     1.9554 H       
  40 H40            0.1097    -5.1082    -3.0182 H       
  41 H41           -1.4298    -7.0224     0.3266 H       
@<TRIPOS>BOND
   1    1    2 2
   2    1    9 1
   3    1    6 1
   4    2    3 1
   5    2   24 1
   6    3    4 2
   7    3   15 1
   8    4    5 1
   9    4   25 1
  10    5    8 1
  11    5    6 am
  12    6    7 2
  13    8   11 1
  14    8   26 1
  15    8   27 1
  16    9   10 3
  17   11   12 1
  18   11   28 1
  19   11   29 1
  20   12   13 1
  21   12   14 1
  22   12   30 1
  23   13   31 1
  24   13   32 1
  25   13   33 1
  26   14   34 1
  27   14   35 1
  28   14   36 1
  29   15   16 ar
  30   15   20 ar
  31   16   17 ar
  32   16   37 1
  33   17   18 ar
  34   17   21 1
  35   18   19 ar
  36   18   23 1
  37   19   20 ar
  38   19   38 1
  39   20   39 1
  40   21   22 2
  41   21   40 1
  42   22   23 1
  43   23   41 1

#	End of record

