#	Name: ASD01150312
#	Creating user name:	WinNT
#	Creation time:	15. 06. 2019 19:04

#	Modifying user name:	WinNT
#	Modification time:	15. 06. 2019 19:04

#	Program:	/corina/corina34_cracker 3.40 0067  02.08.2006

@<TRIPOS>MOLECULE
ASD01150312
  66   68    0    0    0
SMALL
NO_CHARGES


@<TRIPOS>ATOM
   1 N1            -0.0169     1.3926     0.0097 N.pl3   
   2 C2             0.0021    -0.0041     0.0020 C.2     
   3 C3            -1.3281    -0.4052     0.0131 C.2     
   4 N4            -2.0858     0.6950     0.0265 N.2     
   5 C5            -1.3234     1.7682     0.0302 C.2     
   6 C6             1.1390    -0.8369    -0.0137 C.2     
   7 C7             1.0965     2.2428     0.0036 C.ar    
   8 C8             1.3308     3.0745    -1.0833 C.ar    
   9 C9             2.4293     3.9116    -1.0863 C.ar    
  10 C10            3.2954     3.9221    -0.0084 C.ar    
  11 C11            3.0648     3.0949     1.0755 C.ar    
  12 C12            1.9648     2.2597     1.0870 C.ar    
  13 N13           -1.7777     3.0668     0.0437 N.3     
  14 C14           -3.2460     3.1108     0.0531 C.3     
  15 C15           -1.2215     3.8073     1.1840 C.3     
  16 O16            1.0070    -2.0475    -0.0189 O.2     
  17 O17            2.3748    -0.2923    -0.0231 O.3     
  18 C18            3.4818    -1.1959    -0.0389 C.3     
  19 C19            3.4084    -2.0704    -1.2922 C.3     
  20 C20            4.7890    -0.4008    -0.0476 C.3     
  21 C21            3.4332    -2.0838     1.2061 C.3     
  22 N22           -1.7881    -1.7165     0.0102 N.am    
  23 C23           -3.1126    -1.9660     0.0221 C.2     
  24 C24           -3.6016    -3.3599     0.0190 C.ar    
  25 O25           -3.9047    -1.0440     0.0353 O.2     
  26 C26           -2.6948    -4.4213     0.0038 C.ar    
  27 C27           -3.1581    -5.7205     0.0010 C.ar    
  28 C28           -4.5184    -5.9741     0.0132 C.ar    
  29 C29           -5.4236    -4.9284     0.0282 C.ar    
  30 C30           -4.9741    -3.6225     0.0371 C.ar    
  31 Cl31          -6.1111    -2.3108     0.0565 Cl      
  32 C32           -5.0160    -7.3966     0.0095 C.3     
  33 O33            5.8959    -1.3043    -0.0635 O.3     
  34 C34            7.1716    -0.6605    -0.0727 C.3     
  35 C35           -2.1801    -6.8670    -0.0159 C.3     
  36 H36            0.6549     3.0666    -1.9256 H       
  37 H37            2.6123     4.5585    -1.9316 H       
  38 H38            4.1539     4.5773    -0.0132 H       
  39 H39            3.7432     3.1051     1.9158 H       
  40 H40            1.7850     1.6142     1.9340 H       
  41 H41           -3.6191     2.6008     0.9412 H       
  42 H42           -3.5783     4.1489     0.0637 H       
  43 H43           -3.6300     2.6154    -0.8387 H       
  44 H44           -0.1338     3.8183     1.1144 H       
  45 H45           -1.5967     4.8306     1.1706 H       
  46 H46           -1.5212     3.3225     2.1130 H       
  47 H47            3.4430    -1.4378    -2.1792 H       
  48 H48            4.2528    -2.7596    -1.3043 H       
  49 H49            2.4772    -2.6368    -1.2860 H       
  50 H50            4.8236     0.2318    -0.9346 H       
  51 H51            4.8412     0.2222     0.8452 H       
  52 H52            2.5020    -2.6502     1.2123 H       
  53 H53            4.2776    -2.7730     1.1940 H       
  54 H54            3.4855    -1.4608     2.0990 H       
  55 H55           -1.1561    -2.4522    -0.0004 H       
  56 H56           -1.6327    -4.2255    -0.0060 H       
  57 H57           -6.4839    -5.1335     0.0377 H       
  58 H58           -5.1256    -7.7458     1.0362 H       
  59 H59           -5.9812    -7.4425    -0.4949 H       
  60 H60           -4.3012    -8.0302    -0.5155 H       
  61 H61            7.9590    -1.4142    -0.0846 H       
  62 H62            7.2557    -0.0333    -0.9602 H       
  63 H63            7.2733    -0.0428     0.8196 H       
  64 H64           -1.9337    -7.1494     1.0077 H       
  65 H65           -2.6267    -7.7180    -0.5301 H       
  66 H66           -1.2726    -6.5627    -0.5373 H       
@<TRIPOS>BOND
   1    1    2 1
   2    1    7 1
   3    1    5 1
   4    2    3 2
   5    2    6 1
   6    3    4 1
   7    3   22 1
   8    4    5 2
   9    5   13 1
  10    6   16 2
  11    6   17 1
  12    7    8 ar
  13    7   12 ar
  14    8    9 ar
  15    8   36 1
  16    9   10 ar
  17    9   37 1
  18   10   11 ar
  19   10   38 1
  20   11   12 ar
  21   11   39 1
  22   12   40 1
  23   13   14 1
  24   13   15 1
  25   14   41 1
  26   14   42 1
  27   14   43 1
  28   15   44 1
  29   15   45 1
  30   15   46 1
  31   17   18 1
  32   18   19 1
  33   18   20 1
  34   18   21 1
  35   19   47 1
  36   19   48 1
  37   19   49 1
  38   20   33 1
  39   20   50 1
  40   20   51 1
  41   21   52 1
  42   21   53 1
  43   21   54 1
  44   22   23 am
  45   22   55 1
  46   23   24 1
  47   23   25 2
  48   24   26 ar
  49   24   30 ar
  50   26   27 ar
  51   26   56 1
  52   27   28 ar
  53   27   35 1
  54   28   29 ar
  55   28   32 1
  56   29   30 ar
  57   29   57 1
  58   30   31 1
  59   32   58 1
  60   32   59 1
  61   32   60 1
  62   33   34 1
  63   34   61 1
  64   34   62 1
  65   34   63 1
  66   35   64 1
  67   35   65 1
  68   35   66 1

#	End of record

