#	Name: ASD01920040
#	Creating user name:	WinNT
#	Creation time:	15. 06. 2019 20:11

#	Modifying user name:	WinNT
#	Modification time:	15. 06. 2019 20:11

#	Program:	/corina/corina34_cracker 3.40 0067  02.08.2006

@<TRIPOS>MOLECULE
ASD01920040
  45   46    0    0    0
SMALL
NO_CHARGES


@<TRIPOS>ATOM
   1 N1            -0.1093     1.4966     0.8877 N.pl3   
   2 C2             0.9946     2.2920     0.9951 C.2     
   3 C3             0.6315     3.5750     0.8302 C.2     
   4 C4            -0.8196     3.5682     0.6019 C.2     
   5 C5            -1.2032     2.2410     0.6468 C.2     
   6 C6             2.3975     1.8082     1.2573 C.3     
   7 C7            -2.6055     1.7194     0.4667 C.3     
   8 C8            -1.6819     4.7287     0.3686 C.2     
   9 O9            -2.8728     4.5745     0.1942 O.2     
  10 C10           -1.0902     6.1145     0.3452 C.3     
  11 S11           -2.4032     7.3275     0.0365 S.3     
  12 C12           -1.5358     8.8612     0.0440 C.ar    
  13 C13           -2.2242    10.0500    -0.1643 C.ar    
  14 C14           -1.5442    11.2513    -0.1584 C.ar    
  15 C15           -0.1723    11.2717     0.0552 C.ar    
  16 C16            0.5162    10.0838     0.2635 C.ar    
  17 C17           -0.1640     8.8826     0.2639 C.ar    
  18 N18            0.5179    12.4915     0.0602 N.am    
  19 C19           -0.0683    13.5953     0.5645 C.2     
  20 O20           -1.2221    13.5532     0.9363 O.2     
  21 C21            0.7097    14.8819     0.6666 C.3     
  22 C22           -0.3249    -0.3523     2.4741 C.3     
  23 C23           -0.1026     0.0368     1.0112 C.3     
  24 H24            1.2780     4.4397     0.8599 H       
  25 H25            2.8955     1.6064     0.3090 H       
  26 H26            2.9500     2.5738     1.8021 H       
  27 H27            2.3618     0.8945     1.8506 H       
  28 H28           -2.7838     1.5136    -0.5887 H       
  29 H29           -2.7284     0.8016     1.0417 H       
  30 H30           -3.3186     2.4658     0.8169 H       
  31 H31           -0.6196     6.3249     1.3055 H       
  32 H32           -0.3439     6.1775    -0.4467 H       
  33 H33           -3.2911    10.0341    -0.3312 H       
  34 H34           -2.0793    12.1753    -0.3203 H       
  35 H35            1.5833    10.1001     0.4292 H       
  36 H36            0.3715     7.9588     0.4262 H       
  37 H37            1.4174    12.5413    -0.2993 H       
  38 H38            1.7198    14.7267     0.2873 H       
  39 H39            0.2148    15.6536     0.0769 H       
  40 H40            0.7574    15.1960     1.7092 H       
  41 H41           -0.3199    -1.4384     2.5660 H       
  42 H42            0.4726     0.0679     3.0870 H       
  43 H43           -1.2856     0.0365     2.8116 H       
  44 H44           -0.9001    -0.3833     0.3983 H       
  45 H45            0.8581    -0.3520     0.6738 H       
@<TRIPOS>BOND
   1    1   23 1
   2    1    2 1
   3    1    5 1
   4    2    3 2
   5    2    6 1
   6    3    4 1
   7    3   24 1
   8    4    5 2
   9    4    8 1
  10    5    7 1
  11    6   25 1
  12    6   26 1
  13    6   27 1
  14    7   28 1
  15    7   29 1
  16    7   30 1
  17    8    9 2
  18    8   10 1
  19   10   11 1
  20   10   31 1
  21   10   32 1
  22   11   12 1
  23   12   13 ar
  24   12   17 ar
  25   13   14 ar
  26   13   33 1
  27   14   15 ar
  28   14   34 1
  29   15   16 ar
  30   15   18 1
  31   16   17 ar
  32   16   35 1
  33   17   36 1
  34   18   19 am
  35   18   37 1
  36   19   20 2
  37   19   21 1
  38   21   38 1
  39   21   39 1
  40   21   40 1
  41   22   23 1
  42   22   41 1
  43   22   42 1
  44   22   43 1
  45   23   44 1
  46   23   45 1

#	End of record

