#	Name: ASD00842743
#	Creating user name:	WinNT
#	Creation time:	15. 06. 2019 18:45

#	Modifying user name:	WinNT
#	Modification time:	15. 06. 2019 18:45

#	Program:	/corina/corina34_cracker 3.40 0067  02.08.2006

@<TRIPOS>MOLECULE
ASD00842743
  88   93    0    0    0
SMALL
NO_CHARGES


@<TRIPOS>ATOM
   1 F1            -0.0915    -3.1263     4.7193 F       
   2 C2            -0.0167     1.3829     0.0096 C.ar    
   3 C3             0.0021    -0.0041     0.0020 C.ar    
   4 C4             1.2143    -0.6791    -0.0132 C.ar    
   5 C5             2.3989     0.0312    -0.0207 C.ar    
   6 C6             2.3774     1.4139    -0.0126 C.ar    
   7 C7             1.1710     2.0888     0.0021 C.ar    
   8 C8             1.2384    -2.1858    -0.0210 C.3     
   9 C9             0.4953    -2.7219    -1.2261 C.2     
  10 O10            2.6067    -2.6715    -0.0097 O.3     
  11 C11            3.3980    -2.2932    -1.0313 C.2     
  12 N12            4.6790    -2.7090    -1.0812 N.am    
  13 O13            2.9572    -1.5768    -1.9082 O.2     
  14 C14            5.5605    -2.3076    -2.1880 C.3     
  15 C15            6.8541    -1.7366    -1.5975 C.3     
  16 N16            7.4341    -2.7109    -0.6636 N.3     
  17 C17            6.5391    -2.9555     0.4753 C.3     
  18 C18            5.2343    -3.5714    -0.0270 C.3     
  19 N19            8.7475    -2.2811    -0.2113 N.3     
  20 C20            9.3277    -3.2558     0.7230 C.3     
  21 C21           10.7384    -2.8078     1.1126 C.3     
  22 N22           10.6745    -1.4720     1.7219 N.3     
  23 C23           10.0942    -0.4973     0.7876 C.3     
  24 C24            8.6836    -0.9454     0.3981 C.3     
  25 C25           12.0014    -1.0378     2.1789 C.3     
  26 O26            0.7741    -2.5257    -2.3901 O.2     
  27 N27           -0.5308    -3.4561    -0.7641 N.am    
  28 C28            0.4693    -2.7338     1.1591 C.ar    
  29 C29           -0.5745    -3.4835     0.6314 C.ar    
  30 C30            0.6336    -2.6122     2.5207 C.ar    
  31 C31           -0.2493    -3.2426     3.3826 C.ar    
  32 C32           -1.2952    -3.9938     2.8681 C.ar    
  33 C33           -1.4597    -4.1156     1.5017 C.ar    
  34 F34           -2.1572    -4.6094     3.7067 F       
  35 C35           -0.9812    -5.8525    -2.0402 C.ar    
  36 C36            0.1971    -6.0109    -2.7547 C.ar    
  37 C37           -1.6517    -6.9616    -1.5612 C.ar    
  38 C38           -1.1488    -8.2283    -1.7931 C.ar    
  39 C39            0.0257    -8.3888    -2.5051 C.ar    
  40 C40            0.6995    -7.2833    -2.9865 C.ar    
  41 H41            0.4165    -9.3795    -2.6850 H       
  42 O42            0.8582    -4.9216    -3.2273 O.3     
  43 C43            2.0651    -5.1601    -3.9544 C.3     
  44 C44            2.6626    -3.8249    -4.4029 C.3     
  45 O45           -1.1648    -0.7006     0.0099 O.3     
  46 C46           -3.5740    -0.8895     0.0328 C.3     
  47 C47           -2.3744     0.0601     0.0260 C.3     
  48 S48           -1.6186    -4.2380    -1.7375 S.o2    
  49 O49           -2.7978    -4.4107    -0.9636 O.2     
  50 O50           -1.6007    -3.5589    -2.9856 O.2     
  51 H51           -0.9590     1.9106     0.0170 H       
  52 H52            3.3426    -0.4937    -0.0325 H       
  53 H53            3.3047     1.9675    -0.0178 H       
  54 H54            1.1569     3.1687     0.0084 H       
  55 H55            5.7917    -3.1757    -2.8053 H       
  56 H56            5.0664    -1.5464    -2.7919 H       
  57 H57            7.5631    -1.5360    -2.4008 H       
  58 H58            6.6338    -0.8104    -1.0666 H       
  59 H59            7.0197    -3.6389     1.1753 H       
  60 H60            6.3233    -2.0124     0.9773 H       
  61 H61            4.5248    -3.6485     0.7968 H       
  62 H62            5.4313    -4.5615    -0.4382 H       
  63 H63            8.7062    -3.3179     1.6162 H       
  64 H64            9.3760    -4.2340     0.2445 H       
  65 H65           11.1597    -3.5140     1.8279 H       
  66 H66           11.3672    -2.7719     0.2230 H       
  67 H67           10.0459     0.4809     1.2661 H       
  68 H68           10.7157    -0.4352    -0.1056 H       
  69 H69            8.2622    -0.2391    -0.3173 H       
  70 H70            8.0547    -0.9812     1.2876 H       
  71 H71           12.6843    -1.0024     1.3301 H       
  72 H72           11.9253    -0.0465     2.6256 H       
  73 H73           12.3789    -1.7423     2.9199 H       
  74 H74            1.4500    -2.0263     2.9165 H       
  75 H75           -2.2766    -4.7018     1.1074 H       
  76 H76           -2.5692    -6.8388    -1.0049 H       
  77 H77           -1.6740    -9.0939    -1.4173 H       
  78 H78            1.6164    -7.4093    -3.5431 H       
  79 H79            2.7778    -5.6806    -3.3147 H       
  80 H80            1.8472    -5.7728    -4.8292 H       
  81 H81            3.5831    -4.0068    -4.9575 H       
  82 H82            1.9498    -3.3045    -5.0425 H       
  83 H83            2.8805    -3.2123    -3.5281 H       
  84 H84           -4.4966    -0.3093     0.0451 H       
  85 H85           -3.5489    -1.5131    -0.8609 H       
  86 H86           -3.5312    -1.5227     0.9190 H       
  87 H87           -2.3995     0.6837     0.9196 H       
  88 H88           -2.4172     0.6932    -0.8603 H       
@<TRIPOS>BOND
   1    1   31 1
   2    2    3 ar
   3    2    7 ar
   4    2   51 1
   5    3    4 ar
   6    3   45 1
   7    4    5 ar
   8    4    8 1
   9    5    6 ar
  10    5   52 1
  11    6    7 ar
  12    6   53 1
  13    7   54 1
  14    8    9 1
  15    8   10 1
  16    8   28 1
  17    9   26 2
  18    9   27 am
  19   10   11 1
  20   11   12 am
  21   11   13 2
  22   12   14 1
  23   12   18 1
  24   14   15 1
  25   14   55 1
  26   14   56 1
  27   15   16 1
  28   15   57 1
  29   15   58 1
  30   16   17 1
  31   16   19 1
  32   17   18 1
  33   17   59 1
  34   17   60 1
  35   18   61 1
  36   18   62 1
  37   19   20 1
  38   19   24 1
  39   20   21 1
  40   20   63 1
  41   20   64 1
  42   21   22 1
  43   21   65 1
  44   21   66 1
  45   22   23 1
  46   22   25 1
  47   23   24 1
  48   23   67 1
  49   23   68 1
  50   24   69 1
  51   24   70 1
  52   25   71 1
  53   25   72 1
  54   25   73 1
  55   27   48 am
  56   27   29 1
  57   28   29 ar
  58   28   30 ar
  59   29   33 ar
  60   30   31 ar
  61   30   74 1
  62   31   32 ar
  63   32   33 ar
  64   32   34 1
  65   33   75 1
  66   35   36 ar
  67   35   37 ar
  68   35   48 1
  69   36   42 1
  70   36   40 ar
  71   37   38 ar
  72   37   76 1
  73   38   39 ar
  74   38   77 1
  75   39   40 ar
  76   39   41 1
  77   40   78 1
  78   42   43 1
  79   43   44 1
  80   43   79 1
  81   43   80 1
  82   44   81 1
  83   44   82 1
  84   44   83 1
  85   45   47 1
  86   46   47 1
  87   46   84 1
  88   46   85 1
  89   46   86 1
  90   47   87 1
  91   47   88 1
  92   48   49 2
  93   48   50 2

#	End of record

