#	Name: ASD01200108
#	Creating user name:	WinNT
#	Creation time:	15. 06. 2019 19:08

#	Modifying user name:	WinNT
#	Modification time:	15. 06. 2019 19:08

#	Program:	/corina/corina34_cracker 3.40 0067  02.08.2006

@<TRIPOS>MOLECULE
ASD01200108
  59   63    0    0    0
SMALL
NO_CHARGES


@<TRIPOS>ATOM
   1 C1            -0.2837     1.6029    -1.2565 C.2     
   2 N2            -0.0138     0.3384    -0.9128 N.am    
   3 C3             1.2373    -0.0166    -1.2665 C.2     
   4 C4             1.8385     1.2069    -1.9294 C.3     
   5 N5             0.7547     2.2026    -1.8663 N.am    
   6 O6            -1.3498     2.1473    -1.0460 O.2     
   7 O7             1.7711    -1.0908    -1.0904 O.2     
   8 C8             0.7988     3.5775    -2.3702 C.3     
   9 C9            -0.9608    -0.5503    -0.2350 C.3     
  10 C10           -5.2533    -2.4031    -3.9535 C.2     
  11 N11           -4.1845    -3.1578    -4.0191 N.2     
  12 C12           -3.2465    -2.6951    -3.1585 C.ar    
  13 C13           -3.7904    -1.5670    -2.5180 C.ar    
  14 N14           -5.0600    -1.4040    -3.0386 N.pl3   
  15 C15           -1.9516    -3.1135    -2.8343 C.ar    
  16 C16           -1.2230    -2.4164    -1.8915 C.ar    
  17 C17           -1.7690    -1.3006    -1.2621 C.ar    
  18 C18           -3.0436    -0.8783    -1.5721 C.ar    
  19 C19           -6.4830    -2.5981    -4.7534 C.ar    
  20 C20           -6.5576    -3.6542    -5.6609 C.ar    
  21 C21           -7.7148    -3.8237    -6.4016 C.ar    
  22 C22           -8.7601    -2.9315    -6.2106 C.ar    
  23 C23           -8.6180    -1.9057    -5.2930 C.ar    
  24 N24           -7.5085    -1.7694    -4.5973 N.ar    
  25 O25            0.0354    -2.8221    -1.5751 O.3     
  26 C26            0.5724    -3.8484    -2.2856 C.ar    
  27 C27            1.2499    -3.5944    -3.4696 C.ar    
  28 C28            1.7952    -4.6395    -4.1897 C.ar    
  29 C29            1.6660    -5.9378    -3.7318 C.ar    
  30 C30            0.9914    -6.1937    -2.5523 C.ar    
  31 C31            0.4491    -5.1517    -1.8254 C.ar    
  32 S32            2.3619    -7.2687    -4.6534 S.o2    
  33 O33            1.5678    -8.3928    -4.2996 O.2     
  34 O34            2.3973    -6.7884    -5.9903 O.2     
  35 C35            4.0432    -7.4446    -3.9954 C.3     
  36 C36            4.7596    -8.5831    -4.7244 C.3     
  37 H37            2.7106     1.5537    -1.3751 H       
  38 H38            2.1017     0.9916    -2.9650 H       
  39 H39           -0.1563     4.0660    -2.1772 H       
  40 H40            1.5951     4.1242    -1.8651 H       
  41 H41            0.9904     3.5653    -3.4431 H       
  42 H42           -0.4132    -1.2597     0.3854 H       
  43 H43           -1.6287     0.0406     0.3919 H       
  44 H44           -5.6952    -0.7106    -2.8005 H       
  45 H45           -1.5236    -3.9782    -3.3196 H       
  46 H46           -3.4608    -0.0121    -1.0802 H       
  47 H47           -5.7243    -4.3300    -5.7845 H       
  48 H48           -7.8018    -4.6322    -7.1124 H       
  49 H49           -9.6759    -3.0365    -6.7733 H       
  50 H50           -9.4300    -1.2097    -5.1423 H       
  51 H51            1.3504    -2.5806    -3.8280 H       
  52 H52            2.3227    -4.4424    -5.1113 H       
  53 H53            0.8916    -7.2087    -2.1971 H       
  54 H54           -0.0742    -5.3516    -0.9020 H       
  55 H55            4.5915    -6.5147    -4.1463 H       
  56 H56            3.9947    -7.6690    -2.9299 H       
  57 H57            5.7699    -8.6888    -4.3290 H       
  58 H58            4.2113    -9.5130    -4.5736 H       
  59 H59            4.8081    -8.3586    -5.7899 H       
@<TRIPOS>BOND
   1    1    2 am
   2    1    5 am
   3    1    6 2
   4    2    3 am
   5    2    9 1
   6    3    4 1
   7    3    7 2
   8    4    5 1
   9    4   37 1
  10    4   38 1
  11    5    8 1
  12    8   39 1
  13    8   40 1
  14    8   41 1
  15    9   17 1
  16    9   42 1
  17    9   43 1
  18   10   11 2
  19   10   14 1
  20   10   19 1
  21   11   12 1
  22   12   13 ar
  23   12   15 ar
  24   13   14 1
  25   13   18 ar
  26   14   44 1
  27   15   16 ar
  28   15   45 1
  29   16   17 ar
  30   16   25 1
  31   17   18 ar
  32   18   46 1
  33   19   20 ar
  34   19   24 ar
  35   20   21 ar
  36   20   47 1
  37   21   22 ar
  38   21   48 1
  39   22   23 ar
  40   22   49 1
  41   23   24 ar
  42   23   50 1
  43   25   26 1
  44   26   27 ar
  45   26   31 ar
  46   27   28 ar
  47   27   51 1
  48   28   29 ar
  49   28   52 1
  50   29   30 ar
  51   29   32 1
  52   30   31 ar
  53   30   53 1
  54   31   54 1
  55   32   33 2
  56   32   34 2
  57   32   35 1
  58   35   36 1
  59   35   55 1
  60   35   56 1
  61   36   57 1
  62   36   58 1
  63   36   59 1

#	End of record

