#	Name: ASD02030796
#	Creating user name:	WinNT
#	Creation time:	15. 06. 2019 20:16

#	Modifying user name:	WinNT
#	Modification time:	15. 06. 2019 20:16

#	Program:	/corina/corina34_cracker 3.40 0067  02.08.2006

@<TRIPOS>MOLECULE
ASD02030796
  93   97    0    0    0
SMALL
NO_CHARGES


@<TRIPOS>ATOM
   1 H1            -0.4708     0.1309    -0.4306 H       
   2 C2            -0.2513     1.1967    -0.3678 C.3     
   3 C3            -0.6986     1.9143    -1.6658 C.3     
   4 C4             0.5940     2.4585    -2.3332 C.3     
   5 C5             1.6836     1.5404    -1.7689 C.3     
   6 H6             1.6474     0.5654    -2.2548 H       
   7 C7             3.0937     2.1000    -1.7815 C.3     
   8 H8             3.1250     3.0325    -1.2180 H       
   9 C9             3.5635     2.3250    -3.2194 C.3     
  10 C10            5.0049     2.8385    -3.2103 C.3     
  11 C11            5.9111     1.8072    -2.5354 C.3     
  12 H12            5.8656     0.8680    -3.0868 H       
  13 C13            7.3518     2.3214    -2.5261 C.3     
  14 C14            8.2576     1.2883    -1.8527 C.3     
  15 O15            9.6036     1.7679    -1.8447 O.3     
  16 C16            8.1903    -0.0302    -2.6259 C.3     
  17 C17            8.9965    -1.0982    -1.8840 C.3     
  18 C18            7.7885     1.0608    -0.4141 C.3     
  19 C19            6.3480     0.5460    -0.4230 C.3     
  20 C20            5.4407     1.5771    -1.0975 C.3     
  21 C21            5.5019     2.8952    -0.3231 C.3     
  22 C22            4.0025     1.0576    -1.1116 C.3     
  23 H23            3.9671     0.1352    -1.6913 H       
  24 C24            3.5453     0.7462     0.3093 C.3     
  25 C25            2.0719     0.3060     0.3397 C.3     
  26 C26            1.2547     1.4218    -0.2813 C.3     
  27 C27            1.5401     2.7374     0.4457 C.3     
  28 C28           -0.9497     1.8104     0.8473 C.3     
  29 H29           -0.6656     2.8587     0.9386 H       
  30 C30           -0.5307     1.0565     2.1110 C.3     
  31 C31           -2.4659     1.7064     0.6704 C.3     
  32 H32           -2.7539     2.1666    -0.2748 H       
  33 O33           -2.8519     0.3305     0.6674 O.3     
  34 C34           -3.1646     2.4296     1.8235 C.3     
  35 C35           -4.6754     2.4338     1.5821 C.3     
  36 C36           -5.3841     3.0397     2.7952 C.3     
  37 C37           -6.8949     3.0439     2.5537 C.3     
  38 C38           -7.2103     3.8773     1.3100 C.3     
  39 C39           -8.7211     3.8815     1.0685 C.3     
  40 C40           -6.7235     5.3124     1.5208 C.3     
  41 C41           -6.5017     3.2714     0.0969 C.3     
  42 C42           -4.9908     3.2672     0.3383 C.3     
  43 H43           -1.1947     1.2082    -2.3317 H       
  44 H44           -1.3708     2.7380    -1.4252 H       
  45 H45            0.5360     2.3669    -3.4178 H       
  46 H46            0.7724     3.4935    -2.0415 H       
  47 H47            3.5163     1.3847    -3.7685 H       
  48 H48            2.9190     3.0601    -3.7014 H       
  49 H49            5.3392     3.0003    -4.2351 H       
  50 H50            5.0521     3.7785    -2.6605 H       
  51 H51            7.6860     2.4847    -3.5506 H       
  52 H52            7.3989     3.2603    -1.9745 H       
  53 H53           10.2345     1.1624    -1.4319 H       
  54 H54            7.1518    -0.3507    -2.7080 H       
  55 H55            8.6067     0.1118    -3.6232 H       
  56 H56            8.5801    -1.2402    -0.8867 H       
  57 H57            8.9486    -2.0376    -2.4348 H       
  58 H58           10.0351    -0.7777    -1.8018 H       
  59 H59            8.4341     0.3258     0.0666 H       
  60 H60            7.8352     2.0006     0.1361 H       
  61 H61            6.3015    -0.3938    -0.9733 H       
  62 H62            6.0140     0.3835     0.6018 H       
  63 H63            4.8551     3.6293    -0.8037 H       
  64 H64            5.1668     2.7309     0.7010 H       
  65 H65            6.5274     3.2645    -0.3150 H       
  66 H66            4.1648    -0.0529     0.7163 H       
  67 H67            3.6641     1.6374     0.9256 H       
  68 H68            1.9467    -0.6104    -0.2371 H       
  69 H69            1.7547     0.1431     1.3697 H       
  70 H70            1.2197     2.6555     1.4843 H       
  71 H71            2.6091     2.9474     0.4107 H       
  72 H72            0.9948     3.5466    -0.0400 H       
  73 H73            0.5462     1.1510     2.2503 H       
  74 H74           -1.0470     1.4780     2.9735 H       
  75 H75           -0.7929     0.0033     2.0095 H       
  76 H76           -2.6262    -0.1431     1.4798 H       
  77 H77           -2.9477     1.9151     2.7597 H       
  78 H78           -2.8030     3.4562     1.8809 H       
  79 H79           -5.0222     1.4114     1.4319 H       
  80 H80           -5.1594     2.4460     3.6812 H       
  81 H81           -5.0373     4.0621     2.9453 H       
  82 H82           -7.2417     2.0215     2.4035 H       
  83 H83           -7.3998     3.4756     3.4179 H       
  84 H84           -9.2260     4.3132     1.9328 H       
  85 H85           -8.9458     4.4753     0.1825 H       
  86 H86           -9.0679     2.8592     0.9184 H       
  87 H87           -5.6472     5.3094     1.6928 H       
  88 H88           -6.9482     5.9061     0.6347 H       
  89 H89           -7.2284     5.7441     2.3850 H       
  90 H90           -6.8485     2.2490    -0.0533 H       
  91 H91           -6.7263     3.8651    -0.7892 H       
  92 H92           -4.6440     4.2896     0.4885 H       
  93 H93           -4.4860     2.8355    -0.5259 H       
@<TRIPOS>BOND
   1    1    2 1
   2    2   26 1
   3    2    3 1
   4    2   28 1
   5    3    4 1
   6    3   43 1
   7    3   44 1
   8    4    5 1
   9    4   45 1
  10    4   46 1
  11    5   26 1
  12    5    6 1
  13    5    7 1
  14    7   22 1
  15    7    8 1
  16    7    9 1
  17    9   10 1
  18    9   47 1
  19    9   48 1
  20   10   11 1
  21   10   49 1
  22   10   50 1
  23   11   20 1
  24   11   12 1
  25   11   13 1
  26   13   14 1
  27   13   51 1
  28   13   52 1
  29   14   15 1
  30   14   16 1
  31   14   18 1
  32   15   53 1
  33   16   17 1
  34   16   54 1
  35   16   55 1
  36   17   56 1
  37   17   57 1
  38   17   58 1
  39   18   19 1
  40   18   59 1
  41   18   60 1
  42   19   20 1
  43   19   61 1
  44   19   62 1
  45   20   21 1
  46   20   22 1
  47   21   63 1
  48   21   64 1
  49   21   65 1
  50   22   23 1
  51   22   24 1
  52   24   25 1
  53   24   66 1
  54   24   67 1
  55   25   26 1
  56   25   68 1
  57   25   69 1
  58   26   27 1
  59   27   70 1
  60   27   71 1
  61   27   72 1
  62   28   29 1
  63   28   30 1
  64   28   31 1
  65   30   73 1
  66   30   74 1
  67   30   75 1
  68   31   32 1
  69   31   33 1
  70   31   34 1
  71   33   76 1
  72   34   35 1
  73   34   77 1
  74   34   78 1
  75   35   42 1
  76   35   36 1
  77   35   79 1
  78   36   37 1
  79   36   80 1
  80   36   81 1
  81   37   38 1
  82   37   82 1
  83   37   83 1
  84   38   39 1
  85   38   40 1
  86   38   41 1
  87   39   84 1
  88   39   85 1
  89   39   86 1
  90   40   87 1
  91   40   88 1
  92   40   89 1
  93   41   42 1
  94   41   90 1
  95   41   91 1
  96   42   92 1
  97   42   93 1

#	End of record

