#	Name: ASD09740132
#	Creating user name:	WinNT
#	Creation time:	15. 06. 2019 21:22

#	Modifying user name:	WinNT
#	Modification time:	15. 06. 2019 21:22

#	Program:	/corina/corina34_cracker 3.40 0067  02.08.2006

@<TRIPOS>MOLECULE
ASD09740132
  56   59    0    0    0
SMALL
NO_CHARGES


@<TRIPOS>ATOM
   1 O1            -0.0144     1.2085     0.0087 O.3     
   2 N2             0.0021    -0.0041     0.0020 N.2     
   3 C3             1.2413     1.6828    -0.0008 C.2     
   4 N4             2.0459     0.6359    -0.0141 N.2     
   5 C5             1.2348    -0.4424    -0.0121 C.2     
   6 C6             1.6623    -1.8639    -0.0231 C.ar    
   7 C7             1.6455     3.1033     0.0023 C.ar    
   8 C8             0.7096    -2.8804    -0.0195 C.ar    
   9 C9             3.0175    -2.1863    -0.0427 C.ar    
  10 C10            3.4094    -3.5097    -0.0528 C.ar    
  11 C11            2.4594    -4.5150    -0.0439 C.ar    
  12 C12            1.1125    -4.2005    -0.0297 C.ar    
  13 C13            2.9994     3.4456    -0.0092 C.ar    
  14 C14            3.3751     4.7720    -0.0063 C.ar    
  15 C15            2.4105     5.7696     0.0080 C.ar    
  16 C16            1.0578     5.4349     0.0195 C.ar    
  17 C17            0.6745     4.1072     0.0109 C.ar    
  18 O18            2.7857     7.0754     0.0113 O.3     
  19 C19            4.1886     7.3473    -0.0006 C.3     
  20 C20            4.4149     8.8604     0.0051 C.3     
  21 O21            0.1149     6.4149     0.0336 O.3     
  22 C22           -1.2524     5.9995     0.0449 C.3     
  23 C23           -2.1596     7.2314     0.0599 C.3     
  24 C24            2.8933    -5.9581    -0.0555 C.3     
  25 N25            3.0531    -6.4325     1.3256 N.3     
  26 C26            3.2435    -7.8941     1.3635 C.3     
  27 C27            4.5761    -8.1627     2.0940 C.3     
  28 C28            4.7844    -6.8707     2.9273 C.3     
  29 C29            4.2148    -5.7893     1.9757 C.3     
  30 H30           -0.3423    -2.6359    -0.0085 H       
  31 H31            3.7600    -1.4021    -0.0504 H       
  32 H32            4.4597    -3.7607    -0.0680 H       
  33 H33            0.3748    -4.9893    -0.0228 H       
  34 H34            3.7521     2.6712    -0.0200 H       
  35 H35            4.4224     5.0353    -0.0149 H       
  36 H36           -0.3735     3.8463     0.0198 H       
  37 H37            4.6514     6.9073     0.8827 H       
  38 H38            4.6346     6.9166    -0.8971 H       
  39 H39            5.4849     9.0678    -0.0039 H       
  40 H40            3.9520     9.3004    -0.8782 H       
  41 H41            3.9689     9.2911     0.9016 H       
  42 H42           -1.4594     5.4066    -0.8461 H       
  43 H43           -1.4420     5.3978     0.9338 H       
  44 H44           -1.9526     7.8242     0.9509 H       
  45 H45           -1.9700     7.8331    -0.8290 H       
  46 H46           -3.2025     6.9145     0.0685 H       
  47 H47            2.1388    -6.5603    -0.5615 H       
  48 H48            3.8432    -6.0477    -0.5826 H       
  49 H49            2.4221    -8.3611     1.9069 H       
  50 H50            3.2912    -8.2883     0.3484 H       
  51 H51            4.4898    -9.0320     2.7459 H       
  52 H52            5.3878    -8.2950     1.3788 H       
  53 H53            4.2173    -6.9103     3.8574 H       
  54 H54            5.8427    -6.6994     3.1241 H       
  55 H55            4.9595    -5.5091     1.2307 H       
  56 H56            3.8962    -4.9146     2.5427 H       
@<TRIPOS>BOND
   1    1    2 1
   2    1    3 1
   3    2    5 2
   4    3    4 2
   5    3    7 1
   6    4    5 1
   7    5    6 1
   8    6    8 ar
   9    6    9 ar
  10    7   13 ar
  11    7   17 ar
  12    8   12 ar
  13    8   30 1
  14    9   10 ar
  15    9   31 1
  16   10   11 ar
  17   10   32 1
  18   11   12 ar
  19   11   24 1
  20   12   33 1
  21   13   14 ar
  22   13   34 1
  23   14   15 ar
  24   14   35 1
  25   15   16 ar
  26   15   18 1
  27   16   17 ar
  28   16   21 1
  29   17   36 1
  30   18   19 1
  31   19   20 1
  32   19   37 1
  33   19   38 1
  34   20   39 1
  35   20   40 1
  36   20   41 1
  37   21   22 1
  38   22   23 1
  39   22   42 1
  40   22   43 1
  41   23   44 1
  42   23   45 1
  43   23   46 1
  44   24   25 1
  45   24   47 1
  46   24   48 1
  47   25   26 1
  48   25   29 1
  49   26   27 1
  50   26   49 1
  51   26   50 1
  52   27   28 1
  53   27   51 1
  54   27   52 1
  55   28   29 1
  56   28   53 1
  57   28   54 1
  58   29   55 1
  59   29   56 1

#	End of record

