#	Name: ASD00350001
#	Creating user name:	WinNT
#	Creation time:	15. 06. 2019 18:35

#	Modifying user name:	WinNT
#	Modification time:	15. 06. 2019 18:35

#	Program:	/corina/corina34_cracker 3.40 0067  02.08.2006

@<TRIPOS>MOLECULE
ASD00350001
  17   16    0    0    0
SMALL
NO_CHARGES


@<TRIPOS>ATOM
   1 C1            -0.0184     1.5028     0.0103 C.2     
   2 N2             1.3055    -0.4734    -0.4867 N.3     
   3 C3             0.0021    -0.0041     0.0020 C.3     
   4 C4            -0.2279    -0.5251     1.4221 C.3     
   5 C5            -0.0835    -2.0482     1.4362 C.3     
   6 O6             0.7369     0.0530     2.3036 O.3     
   7 O7             1.0197     2.1211     0.0037 O.2     
   8 O8            -1.1898     2.1580     0.0194 O.3     
   9 H9             2.0536    -0.1430     0.1043 H       
  10 H10            1.3222    -1.4794    -0.5627 H       
  11 H11           -0.7864    -0.3745    -0.6531 H       
  12 H12           -1.2305    -0.2521     1.7513 H       
  13 H13            0.9191    -2.3211     1.1069 H       
  14 H14           -0.2474    -2.4193     2.4478 H       
  15 H15           -0.8194    -2.4891     0.7638 H       
  16 H16            0.6507    -0.2333     3.2232 H       
  17 H17           -1.1523     3.1243     0.0245 H       
@<TRIPOS>BOND
   1    1    3 1
   2    1    7 2
   3    1    8 1
   4    2    3 1
   5    2    9 1
   6    2   10 1
   7    3    4 1
   8    3   11 1
   9    4    5 1
  10    4    6 1
  11    4   12 1
  12    5   13 1
  13    5   14 1
  14    5   15 1
  15    6   16 1
  16    8   17 1

#	End of record

