#	Name: ASD02030318
#	Creating user name:	WinNT
#	Creation time:	15. 06. 2019 20:15

#	Modifying user name:	WinNT
#	Modification time:	15. 06. 2019 20:15

#	Program:	/corina/corina34_cracker 3.40 0067  02.08.2006

@<TRIPOS>MOLECULE
ASD02030318
  47   51    0    0    0
SMALL
NO_CHARGES


@<TRIPOS>ATOM
   1 N1             0.1460     2.0780    -1.0783 N.am    
   2 C2             0.3730     0.6415    -0.8475 C.3     
   3 C3            -0.4342     0.2078     0.3812 C.3     
   4 N4            -1.8335     0.6210     0.2121 N.am    
   5 C5            -2.1301     2.0488     0.0076 C.3     
   6 C6            -1.2440     2.5523    -1.1328 C.3     
   7 C7             1.1789     2.9306    -1.2290 C.2     
   8 C8             2.5659     2.4494    -1.0551 C.2     
   9 N9             3.6596     3.1194    -1.3479 N.2     
  10 N10            2.9323     1.2513    -0.5639 N.2     
  11 C11            4.2403     1.2115    -0.5712 C.2     
  12 N12            4.6812     2.3871    -1.0642 N.pl3   
  13 C13            6.0234     2.7504    -1.2390 C.ar    
  14 O14            0.9700     4.0952    -1.5078 O.2     
  15 C15           -2.8270    -0.2893     0.2431 C.2     
  16 C16           -4.2248     0.1509     0.2312 C.2     
  17 O17           -2.5632    -1.4769     0.2809 O.2     
  18 C18           -5.3199    -0.6581     0.1198 C.2     
  19 C19            6.3442     3.9966    -1.7589 C.ar    
  20 C20            7.6703     4.3522    -1.9298 C.ar    
  21 C21            8.6757     3.4655    -1.5823 C.ar    
  22 C22            8.3569     2.2236    -1.0647 C.ar    
  23 C23            7.0348     1.8661    -0.8869 C.ar    
  24 F24            7.9845     5.5647    -2.4362 F       
  25 O25           -4.6553     1.4258     0.3343 O.3     
  26 C26           -5.9941     1.4481     0.2860 C.2     
  27 C27           -6.4456     0.1789     0.1535 C.2     
  28 Br28          -8.2531    -0.3640     0.0352 Br      
  29 Br29          -7.0747     2.9964     0.3912 Br      
  30 C30           -1.5009     3.9548    -1.6758 C.3     
  31 C31           -1.8786     2.7278    -2.5094 C.3     
  32 H32            0.0452     0.0748    -1.7190 H       
  33 H33            1.4335     0.4628    -0.6701 H       
  34 H34           -0.3847    -0.8761     0.4852 H       
  35 H35           -0.0208     0.6789     1.2730 H       
  36 H36           -3.1804     2.1738    -0.2556 H       
  37 H37           -1.9080     2.6061     0.9177 H       
  38 H38            4.8553     0.3879    -0.2397 H       
  39 H39           -5.3193    -1.7339     0.0240 H       
  40 H40            5.5598     4.6876    -2.0301 H       
  41 H41            9.7105     3.7443    -1.7162 H       
  42 H42            9.1430     1.5337    -0.7953 H       
  43 H43            6.7874     0.8957    -0.4825 H       
  44 H44           -2.3123     4.5276    -1.2268 H       
  45 H45           -0.6369     4.5360    -1.9981 H       
  46 H46           -1.2630     2.5018    -3.3801 H       
  47 H47           -2.9384     2.4935    -2.6088 H       
@<TRIPOS>BOND
   1    1    2 1
   2    1    7 am
   3    1    6 1
   4    2    3 1
   5    2   32 1
   6    2   33 1
   7    3    4 1
   8    3   34 1
   9    3   35 1
  10    4    5 1
  11    4   15 am
  12    5    6 1
  13    5   36 1
  14    5   37 1
  15    6   30 1
  16    6   31 1
  17    7    8 1
  18    7   14 2
  19    8    9 2
  20    8   10 1
  21    9   12 1
  22   10   11 2
  23   11   12 1
  24   11   38 1
  25   12   13 1
  26   13   19 ar
  27   13   23 ar
  28   15   16 1
  29   15   17 2
  30   16   25 1
  31   16   18 2
  32   18   27 1
  33   18   39 1
  34   19   20 ar
  35   19   40 1
  36   20   21 ar
  37   20   24 1
  38   21   22 ar
  39   21   41 1
  40   22   23 ar
  41   22   42 1
  42   23   43 1
  43   25   26 1
  44   26   27 2
  45   26   29 1
  46   27   28 1
  47   30   31 1
  48   30   44 1
  49   30   45 1
  50   31   46 1
  51   31   47 1

#	End of record

