#	Name: ASD01881478
#	Creating user name:	WinNT
#	Creation time:	15. 06. 2019 19:42

#	Modifying user name:	WinNT
#	Modification time:	15. 06. 2019 19:42

#	Program:	/corina/corina34_cracker 3.40 0067  02.08.2006

@<TRIPOS>MOLECULE
ASD01881478
  48   51    0    0    0
SMALL
NO_CHARGES


@<TRIPOS>ATOM
   1 C1             0.7518     2.8191    -1.1066 C.2     
   2 C2             1.1784     2.0793     0.0020 C.2     
   3 C3             0.3421     2.0081     1.1326 C.2     
   4 C4            -0.8474     2.6473     1.1326 C.2     
   5 N5            -1.2616     3.3655     0.0551 N.am    
   6 C6            -0.4986     3.4715    -1.0486 C.2     
   7 C7            -2.3797     5.4560     0.6560 C.3     
   8 C8            -2.5601     4.0426     0.0989 C.3     
   9 O9            -0.8923     4.1224    -2.0029 O.2     
  10 N10            2.3980     1.4302    -0.0127 N.pl3   
  11 C11            3.6495     2.1908    -0.1308 C.3     
  12 C12            2.4683    -0.0334     0.0955 C.3     
  13 C13            3.4112    -0.3979     1.2465 C.3     
  14 C14            4.7646     0.2819     1.0268 C.3     
  15 C15            4.5767     1.7967     1.0232 C.3     
  16 C16            5.7057    -0.1018     2.1395 C.ar    
  17 C17            6.8871    -0.7586     1.8499 C.ar    
  18 C18            5.3902     0.2080     3.4492 C.ar    
  19 C19            6.2535    -0.1439     4.4699 C.ar    
  20 C20            7.4320    -0.8061     4.1809 C.ar    
  21 C21            7.7504    -1.1106     2.8706 C.ar    
  22 C22           -3.6061     6.3707     0.6725 C.3     
  23 C23           -3.0699     5.7865     1.9809 C.3     
  24 N24            1.5275     2.9120    -2.2137 N.1     
  25 C25            2.1778     2.9898    -3.1419 C.1     
  26 H26            0.6515     1.4424     1.9990 H       
  27 H27           -1.4816     2.5866     2.0046 H       
  28 H28           -1.4107     5.9168     0.4643 H       
  29 H29           -2.9745     4.0989    -0.9077 H       
  30 H30           -3.2402     3.4829     0.7410 H       
  31 H31            4.1300     1.9585    -1.0812 H       
  32 H32            3.4347     3.2581    -0.0788 H       
  33 H33            1.4744    -0.4331     0.2968 H       
  34 H34            2.8505    -0.4507    -0.8361 H       
  35 H35            2.9824    -0.0585     2.1894 H       
  36 H36            3.5477    -1.4789     1.2766 H       
  37 H37            5.1814    -0.0390     0.0721 H       
  38 H38            5.5431     2.2829     0.8902 H       
  39 H39            4.1380     2.1111     1.9703 H       
  40 H40            7.1355    -0.9970     0.8263 H       
  41 H41            4.4695     0.7253     3.6750 H       
  42 H42            6.0073     0.0987     5.4931 H       
  43 H43            8.1066    -1.0807     4.9784 H       
  44 H44            8.6711    -1.6279     2.6448 H       
  45 H45           -3.4438     7.4334     0.4919 H       
  46 H46           -4.5414     5.9655     0.2864 H       
  47 H47           -3.6524     4.9970     2.4556 H       
  48 H48           -2.5548     6.4648     2.6612 H       
@<TRIPOS>BOND
   1    1   24 1
   2    1    2 2
   3    1    6 1
   4    2    3 1
   5    2   10 1
   6    3    4 2
   7    3   26 1
   8    4    5 1
   9    4   27 1
  10    5    6 am
  11    5    8 1
  12    6    9 2
  13    7    8 1
  14    7   22 1
  15    7   23 1
  16    7   28 1
  17    8   29 1
  18    8   30 1
  19   10   11 1
  20   10   12 1
  21   11   15 1
  22   11   31 1
  23   11   32 1
  24   12   13 1
  25   12   33 1
  26   12   34 1
  27   13   14 1
  28   13   35 1
  29   13   36 1
  30   14   15 1
  31   14   16 1
  32   14   37 1
  33   15   38 1
  34   15   39 1
  35   16   17 ar
  36   16   18 ar
  37   17   21 ar
  38   17   40 1
  39   18   19 ar
  40   18   41 1
  41   19   20 ar
  42   19   42 1
  43   20   21 ar
  44   20   43 1
  45   21   44 1
  46   22   23 1
  47   22   45 1
  48   22   46 1
  49   23   47 1
  50   23   48 1
  51   24   25 3

#	End of record

