#	Name: ASD01870717
#	Creating user name:	WinNT
#	Creation time:	15. 06. 2019 19:39

#	Modifying user name:	WinNT
#	Modification time:	15. 06. 2019 19:39

#	Program:	/corina/corina34_cracker 3.40 0067  02.08.2006

@<TRIPOS>MOLECULE
ASD01870717
  44   47    0    0    0
SMALL
NO_CHARGES


@<TRIPOS>ATOM
   1 C1            -0.0167     1.3777     0.0096 C.ar    
   2 C2             0.0021    -0.0041     0.0020 C.ar    
   3 C3             1.2045    -0.6882    -0.0131 C.ar    
   4 C4             2.4019     0.0016    -0.0204 C.ar    
   5 C5             1.1819     2.0947     0.0020 C.ar    
   6 C6             1.4333     3.5470     0.0074 C.2     
   7 C7             2.4058     1.3982    -0.0129 C.ar    
   8 C8             3.5260     2.3562    -0.0180 C.2     
   9 C9             2.9305     3.7440    -0.0058 C.3     
  10 C10            3.3450     4.4997    -1.2420 C.ar    
  11 C11            3.9934     5.7148    -1.1244 C.ar    
  12 C12            4.3736     6.4080    -2.2584 C.ar    
  13 C13            4.1056     5.8859    -3.5099 C.ar    
  14 C14            3.4580     4.6703    -3.6276 C.ar    
  15 C15            3.0817     3.9751    -2.4936 C.ar    
  16 O16            0.5937     4.4214     0.0201 O.2     
  17 O17            4.7066     2.0810    -0.0305 O.2     
  18 C18            4.5191     6.6421    -4.7462 C.3     
  19 C19            5.9107     6.2257    -5.1477 C.2     
  20 C20            6.5462     6.8263    -6.3349 C.ar    
  21 O21            6.5076     5.3969    -4.4947 O.2     
  22 N22            5.8893     7.7389    -7.0445 N.ar    
  23 C23            7.8360     6.4367    -6.7025 C.ar    
  24 C24            8.4193     7.0122    -7.8228 C.ar    
  25 C25            7.6951     7.9543    -8.5345 C.ar    
  26 C26            6.4201     8.2978    -8.1084 C.ar    
  27 Cl27           8.6971     5.2509    -5.7719 Cl      
  28 C28           -1.3325     2.1122     0.0198 C.3     
  29 H29           -0.9278    -0.5534     0.0083 H       
  30 H30            1.2073    -1.7682    -0.0189 H       
  31 H31            3.3361    -0.5401    -0.0315 H       
  32 H32            3.2474     4.2810     0.8882 H       
  33 H33            4.2028     6.1228    -0.1466 H       
  34 H34            4.8795     7.3577    -2.1665 H       
  35 H35            3.2484     4.2625    -4.6054 H       
  36 H36            2.5790     3.0236    -2.5854 H       
  37 H37            3.8253     6.4201    -5.5570 H       
  38 H38            4.5056     7.7121    -4.5391 H       
  39 H39            9.4154     6.7321    -8.1324 H       
  40 H40            8.1209     8.4207    -9.4106 H       
  41 H41            5.8555     9.0352    -8.6597 H       
  42 H42           -1.6449     2.2837     1.0499 H       
  43 H43           -1.2184     3.0692    -0.4894 H       
  44 H44           -2.0860     1.5149    -0.4937 H       
@<TRIPOS>BOND
   1    1    2 ar
   2    1    5 ar
   3    1   28 1
   4    2    3 ar
   5    2   29 1
   6    3    4 ar
   7    3   30 1
   8    4    7 ar
   9    4   31 1
  10    5    7 ar
  11    5    6 1
  12    6    9 1
  13    6   16 2
  14    7    8 1
  15    8    9 1
  16    8   17 2
  17    9   10 1
  18    9   32 1
  19   10   11 ar
  20   10   15 ar
  21   11   12 ar
  22   11   33 1
  23   12   13 ar
  24   12   34 1
  25   13   14 ar
  26   13   18 1
  27   14   15 ar
  28   14   35 1
  29   15   36 1
  30   18   19 1
  31   18   37 1
  32   18   38 1
  33   19   20 1
  34   19   21 2
  35   20   23 ar
  36   20   22 ar
  37   22   26 ar
  38   23   24 ar
  39   23   27 1
  40   24   25 ar
  41   24   39 1
  42   25   26 ar
  43   25   40 1
  44   26   41 1
  45   28   42 1
  46   28   43 1
  47   28   44 1

#	End of record

