#	Name: ASD02039261
#	Creating user name:	WinNT
#	Creation time:	15. 06. 2019 20:18

#	Modifying user name:	WinNT
#	Modification time:	15. 06. 2019 20:18

#	Program:	/corina/corina34_cracker 3.40 0067  02.08.2006

@<TRIPOS>MOLECULE
ASD02039261
  41   44    0    0    0
SMALL
NO_CHARGES


@<TRIPOS>ATOM
   1 N1            -0.0160     1.3037    -0.0272 N.2     
   2 C2             0.0020    -0.0039     0.0001 C.2     
   3 C3             1.3718    -0.3810     0.0201 C.2     
   4 C4             2.0347     0.7972     0.0015 C.2     
   5 O5             1.1032     1.7614    -0.0268 O.3     
   6 N6            -1.0992    -0.8547     0.0080 N.pl3   
   7 C7            -0.9159    -2.2378    -0.1069 C.ar    
   8 C8             0.1064    -2.7394    -0.9019 C.ar    
   9 C9             0.2877    -4.1041    -1.0149 C.ar    
  10 C10           -0.5505    -4.9743    -0.3351 C.ar    
  11 C11           -1.5735    -4.4746     0.4606 C.ar    
  12 C12           -1.7525    -3.1085     0.5786 C.ar    
  13 O13            4.0142     1.0220    -1.3326 O.3     
  14 C14            5.3529     1.1903    -1.5021 C.ar    
  15 C15            6.1811     1.3213    -0.3890 C.ar    
  16 C16            7.5280     1.4911    -0.5366 C.ar    
  17 C17            8.0901     1.5356    -1.8096 C.ar    
  18 C18            7.2620     1.4042    -2.9407 C.ar    
  19 C19            5.8841     1.2246    -2.7743 C.ar    
  20 C20            3.5294     0.9895     0.0112 C.3     
  21 O21           -0.3712    -6.3182    -0.4476 O.3     
  22 F22           -2.3901    -5.3229     1.1230 F       
  23 N23            9.3717     1.6900    -2.2751 N.pl3   
  24 N24            9.3568     1.6572    -3.6732 N.2     
  25 C25            8.1388     1.4912    -4.1040 C.2     
  26 C26            0.6999    -6.7621    -1.2829 C.3     
  27 F27            0.4964    -6.2995    -2.5874 F       
  28 F28            1.9111    -6.2609    -0.7940 F       
  29 H29            1.7871    -1.3777     0.0450 H       
  30 H30           -1.9937    -0.4894     0.0930 H       
  31 H31            0.7596    -2.0622    -1.4322 H       
  32 H32            1.0827    -4.4934    -1.6336 H       
  33 H33           -2.5475    -2.7192     1.1973 H       
  34 H34            5.7527     1.2886     0.6019 H       
  35 H35            8.1578     1.5913     0.3350 H       
  36 H36            5.2405     1.1229    -3.6357 H       
  37 H37            3.7716     1.9291     0.5077 H       
  38 H38            3.9984     0.1641     0.5468 H       
  39 H39           10.1612     1.8037    -1.7231 H       
  40 H40            7.8326     1.4284    -5.1377 H       
  41 H41            0.7318    -7.8516    -1.2846 H       
@<TRIPOS>BOND
   1    1    2 2
   2    1    5 1
   3    2    3 1
   4    2    6 1
   5    3    4 2
   6    3   29 1
   7    4    5 1
   8    4   20 1
   9    6    7 1
  10    6   30 1
  11    7    8 ar
  12    7   12 ar
  13    8    9 ar
  14    8   31 1
  15    9   10 ar
  16    9   32 1
  17   10   11 ar
  18   10   21 1
  19   11   12 ar
  20   11   22 1
  21   12   33 1
  22   13   14 1
  23   13   20 1
  24   14   15 ar
  25   14   19 ar
  26   15   16 ar
  27   15   34 1
  28   16   17 ar
  29   16   35 1
  30   17   18 ar
  31   17   23 1
  32   18   19 ar
  33   18   25 1
  34   19   36 1
  35   20   37 1
  36   20   38 1
  37   21   26 1
  38   23   24 1
  39   23   39 1
  40   24   25 2
  41   25   40 1
  42   26   27 1
  43   26   28 1
  44   26   41 1

#	End of record

