#	Name: ASD01884466
#	Creating user name:	WinNT
#	Creation time:	15. 06. 2019 19:48

#	Modifying user name:	WinNT
#	Modification time:	15. 06. 2019 19:48

#	Program:	/corina/corina34_cracker 3.40 0067  02.08.2006

@<TRIPOS>MOLECULE
ASD01884466
  50   52    0    0    0
SMALL
NO_CHARGES


@<TRIPOS>ATOM
   1 C1            -0.0164     1.3576     0.0095 C.2     
   2 C2             0.0021    -0.0041     0.0020 C.2     
   3 C3             1.2440    -0.6751    -0.0134 C.2     
   4 C4             2.4024     0.0465    -0.0206 C.2     
   5 N5             2.3700     1.4024    -0.0126 N.am    
   6 C6             1.1986     2.0652     0.0017 C.2     
   7 C7             1.2897    -2.1583    -0.0214 C.ar    
   8 C8             3.6266     2.1554    -0.0201 C.3     
   9 O9             1.1911     3.2856     0.0092 O.2     
  10 C10            4.0442     2.4218    -1.4434 C.ar    
  11 C11            3.6202     3.5709    -2.0843 C.ar    
  12 C12            4.0028     3.8157    -3.3896 C.ar    
  13 C13            4.8103     2.9105    -4.0549 C.ar    
  14 C14            5.2343     1.7606    -3.4129 C.ar    
  15 C15            4.8557     1.5196    -2.1056 C.ar    
  16 C16            0.8124    -2.8774     1.0728 C.ar    
  17 C17            1.8048    -2.8351    -1.1254 C.ar    
  18 C18            1.8461    -4.2138    -1.1298 C.ar    
  19 C19            1.3747    -4.9272    -0.0363 C.ar    
  20 C20            0.8563    -4.2560     1.0626 C.ar    
  21 Cl21           5.2909     3.2170    -5.6946 Cl      
  22 O22            1.4158    -6.2855    -0.0439 O.3     
  23 C23            0.9144    -6.9563     1.1140 C.3     
  24 C24            1.0423    -8.4688     0.9227 C.3     
  25 N25            2.4631    -8.8344     0.8466 N.3     
  26 C26            3.1400    -8.5856     2.1263 C.3     
  27 C27            2.6251   -10.2333     0.4286 C.3     
  28 H28           -0.9563     1.8895     0.0169 H       
  29 H29           -0.9217    -0.5635     0.0082 H       
  30 H30            3.3528    -0.4664    -0.0325 H       
  31 H31            3.4856     3.1027     0.5005 H       
  32 H32            4.4005     1.5759     0.4832 H       
  33 H33            2.9895     4.2773    -1.5650 H       
  34 H34            3.6712     4.7133    -3.8904 H       
  35 H35            5.8647     1.0536    -3.9317 H       
  36 H36            5.1866     0.6221    -1.6044 H       
  37 H37            0.4089    -2.3558     1.9281 H       
  38 H38            2.1710    -2.2806    -1.9768 H       
  39 H39            2.2451    -4.7388    -1.9851 H       
  40 H40            0.4903    -4.8137     1.9120 H       
  41 H41            1.4892    -6.6507     1.9883 H       
  42 H42           -0.1340    -6.6958     1.2593 H       
  43 H43            0.5798    -8.9821     1.7657 H       
  44 H44            0.5418    -8.7619    -0.0002 H       
  45 H45            2.6677    -9.1796     2.9087 H       
  46 H46            4.1902    -8.8647     2.0422 H       
  47 H47            3.0643    -7.5277     2.3778 H       
  48 H48            2.1751   -10.3733    -0.5543 H       
  49 H49            3.6863   -10.4776     0.3804 H       
  50 H50            2.1341   -10.8871     1.1495 H       
@<TRIPOS>BOND
   1    1    2 2
   2    1    6 1
   3    1   28 1
   4    2    3 1
   5    2   29 1
   6    3    4 2
   7    3    7 1
   8    4    5 1
   9    4   30 1
  10    5    6 am
  11    5    8 1
  12    6    9 2
  13    7   16 ar
  14    7   17 ar
  15    8   10 1
  16    8   31 1
  17    8   32 1
  18   10   11 ar
  19   10   15 ar
  20   11   12 ar
  21   11   33 1
  22   12   13 ar
  23   12   34 1
  24   13   14 ar
  25   13   21 1
  26   14   15 ar
  27   14   35 1
  28   15   36 1
  29   16   20 ar
  30   16   37 1
  31   17   18 ar
  32   17   38 1
  33   18   19 ar
  34   18   39 1
  35   19   20 ar
  36   19   22 1
  37   20   40 1
  38   22   23 1
  39   23   24 1
  40   23   41 1
  41   23   42 1
  42   24   25 1
  43   24   43 1
  44   24   44 1
  45   25   26 1
  46   25   27 1
  47   26   45 1
  48   26   46 1
  49   26   47 1
  50   27   48 1
  51   27   49 1
  52   27   50 1

#	End of record

