#	Name: ASD03930050
#	Creating user name:	WinNT
#	Creation time:	15. 06. 2019 20:47

#	Modifying user name:	WinNT
#	Modification time:	15. 06. 2019 20:47

#	Program:	/corina/corina34_cracker 3.40 0067  02.08.2006

@<TRIPOS>MOLECULE
ASD03930050
  27   29    0    0    0
SMALL
NO_CHARGES


@<TRIPOS>ATOM
   1 C1            -0.0166     1.3724     0.0096 C.ar    
   2 C2             0.0021    -0.0041     0.0020 C.ar    
   3 C3            -1.1749    -0.7411    -0.0018 C.ar    
   4 C4            -2.3861    -0.1126     0.0027 C.ar    
   5 C5            -2.4127     1.2983     0.0339 C.ar    
   6 C6            -1.2445     2.0438     0.0308 C.ar    
   7 C7            -3.6664    -0.8968    -0.0561 C.3     
   8 N8            -4.7793    -0.2305     0.6261 N.am    
   9 S9            -5.2009     1.3194     0.1587 S.o2    
  10 C10           -3.6191     2.1390     0.0982 C.2     
  11 S11           -1.6442     3.7555     0.0437 S.3     
  12 C12           -3.3675     3.4263     0.0981 C.2     
  13 O13           -5.6826     1.2386    -1.1757 O.2     
  14 O14           -5.9316     1.8969     1.2319 O.2     
  15 C15           -5.5101    -0.9102     1.6985 C.3     
  16 C16            1.2744     2.1498     0.0014 C.3     
  17 F17            2.3542     1.2605    -0.0137 F       
  18 F18            1.3228     2.9615    -1.1370 F       
  19 F19            1.3446     2.9492     1.1474 F       
  20 H20            0.9504    -0.5208    -0.0014 H       
  21 H21           -1.1313    -1.8202    -0.0088 H       
  22 H22           -3.9364    -1.0493    -1.1010 H       
  23 H23           -3.5032    -1.8698     0.4071 H       
  24 H24           -4.1290     4.1916     0.1296 H       
  25 H25           -5.0364    -0.6924     2.6557 H       
  26 H26           -6.5415    -0.5580     1.7151 H       
  27 H27           -5.4963    -1.9858     1.5226 H       
@<TRIPOS>BOND
   1    1    2 ar
   2    1   16 1
   3    1    6 ar
   4    2    3 ar
   5    2   20 1
   6    3    4 ar
   7    3   21 1
   8    4    5 ar
   9    4    7 1
  10    5    6 ar
  11    5   10 1
  12    6   11 1
  13    7    8 1
  14    7   22 1
  15    7   23 1
  16    8    9 am
  17    8   15 1
  18    9   10 1
  19    9   13 2
  20    9   14 2
  21   10   12 2
  22   11   12 1
  23   12   24 1
  24   15   25 1
  25   15   26 1
  26   15   27 1
  27   16   17 1
  28   16   18 1
  29   16   19 1

#	End of record

