#	Name: ASD01901293
#	Creating user name:	WinNT
#	Creation time:	15. 06. 2019 19:53

#	Modifying user name:	WinNT
#	Modification time:	15. 06. 2019 19:53

#	Program:	/corina/corina34_cracker 3.40 0067  02.08.2006

@<TRIPOS>MOLECULE
ASD01901293
  52   55    0    0    0
SMALL
NO_CHARGES


@<TRIPOS>ATOM
   1 C1             0.7942     1.3191    -0.0364 C.ar    
   2 C2             0.9208    -0.0542    -0.0435 C.ar    
   3 C3             2.1755    -0.6370    -0.0113 C.ar    
   4 C4             3.3117     0.1521     0.0279 C.ar    
   5 C5             3.2008     1.5268     0.0350 C.ar    
   6 C6             1.9370     2.1224     0.0031 C.ar    
   7 C7             1.8137     3.5491     0.0103 C.1     
   8 C8             1.7126     4.7187     0.0162 C.1     
   9 C9             1.5893     6.1454     0.0234 C.ar    
  10 C10            0.2089     8.1128     0.0042 C.ar    
  11 C11            0.3244     6.7394    -0.0032 C.ar    
  12 C12            2.7338     6.9477     0.0628 C.ar    
  13 C13            2.6100     8.3213     0.0701 C.ar    
  14 C14            1.3476     8.9079     0.0386 C.ar    
  15 N15            1.2253    10.3032     0.0456 N.am    
  16 N16            1.0766    12.3040    -1.1946 N.am    
  17 C17            1.1917    10.9668    -1.1205 C.2     
  18 C18            1.1379    10.9545     1.2257 C.2     
  19 C19            1.0474    12.9582    -2.5051 C.3     
  20 O20            1.1645    10.3453     2.2778 O.2     
  21 O21            1.2691    10.3314    -2.1541 O.2     
  22 C22            0.9853    13.0706    -0.0419 C.ar    
  23 C23           -1.1550     8.7531    -0.0249 C.3     
  24 F24            3.7146     9.0983     0.1082 F       
  25 C25            1.0099    12.4223     1.2053 C.ar    
  26 C26            0.8654    14.4509    -0.0950 C.ar    
  27 C27            0.9141    13.1658     2.3794 C.ar    
  28 C28            0.7955    14.5378     2.3067 C.ar    
  29 C29            0.7708    15.1761     1.0761 C.ar    
  30 C30            2.3443    12.6520    -3.2570 C.3     
  31 C31           -0.1442    12.4352    -3.3097 C.3     
  32 F32           -2.1371     7.7572    -0.0569 F       
  33 F33           -1.3255     9.5396     1.1194 F       
  34 F34           -1.2685     9.5568    -1.1644 F       
  35 H35           -0.1855     1.7726    -0.0657 H       
  36 H36            0.0386    -0.6764    -0.0740 H       
  37 H37            2.2685    -1.7130    -0.0164 H       
  38 H38            4.2876    -0.3097     0.0532 H       
  39 H39            4.0883     2.1413     0.0659 H       
  40 H40           -0.5619     6.1228    -0.0300 H       
  41 H41            3.7128     6.4925     0.0880 H       
  42 H42            0.9507    14.0356    -2.3713 H       
  43 H43            0.8417    14.9565    -1.0490 H       
  44 H44            0.9323    12.6714     3.3395 H       
  45 H45            0.7209    15.1188     3.2141 H       
  46 H46            0.6775    16.2512     1.0331 H       
  47 H47            2.4410    11.5746    -3.3908 H       
  48 H48            2.3225    13.1387    -4.2320 H       
  49 H49            3.1932    13.0246    -2.6838 H       
  50 H50           -1.0681    12.6533    -2.7741 H       
  51 H51           -0.1660    12.9219    -4.2848 H       
  52 H52           -0.0475    11.3577    -3.4435 H       
@<TRIPOS>BOND
   1    1    2 ar
   2    1    6 ar
   3    1   35 1
   4    2    3 ar
   5    2   36 1
   6    3    4 ar
   7    3   37 1
   8    4    5 ar
   9    4   38 1
  10    5    6 ar
  11    5   39 1
  12    6    7 1
  13    7    8 3
  14    8    9 1
  15    9   12 ar
  16    9   11 ar
  17   10   11 ar
  18   10   14 ar
  19   10   23 1
  20   11   40 1
  21   12   13 ar
  22   12   41 1
  23   13   14 ar
  24   13   24 1
  25   14   15 1
  26   15   18 am
  27   15   17 am
  28   16   17 am
  29   16   22 1
  30   16   19 1
  31   17   21 2
  32   18   25 1
  33   18   20 2
  34   19   30 1
  35   19   31 1
  36   19   42 1
  37   22   25 ar
  38   22   26 ar
  39   23   32 1
  40   23   33 1
  41   23   34 1
  42   25   27 ar
  43   26   29 ar
  44   26   43 1
  45   27   28 ar
  46   27   44 1
  47   28   29 ar
  48   28   45 1
  49   29   46 1
  50   30   47 1
  51   30   48 1
  52   30   49 1
  53   31   50 1
  54   31   51 1
  55   31   52 1

#	End of record

