#	Name: ASD01870400
#	Creating user name:	WinNT
#	Creation time:	15. 06. 2019 19:39

#	Modifying user name:	WinNT
#	Modification time:	15. 06. 2019 19:39

#	Program:	/corina/corina34_cracker 3.40 0067  02.08.2006

@<TRIPOS>MOLECULE
ASD01870400
  37   40    0    0    0
SMALL
NO_CHARGES


@<TRIPOS>ATOM
   1 C1            -0.0177     1.3768     0.0096 C.ar    
   2 C2            -0.0028    -0.0066     0.0072 C.ar    
   3 C3             1.1984    -0.6898    -0.0083 C.ar    
   4 C4             2.3914     0.0088    -0.0216 C.ar    
   5 C5             2.3827     1.3893    -0.0186 C.ar    
   6 C6             1.1762     2.0795    -0.0025 C.ar    
   7 O7             1.1891     3.4339     0.0006 O.3     
   8 C8             0.1006     4.1234     0.4179 C.ar    
   9 C9            -1.1511     3.5304     0.4506 C.ar    
  10 C10           -1.3369     2.0998     0.0191 C.3     
  11 C11            0.2475     5.4464     0.8180 C.ar    
  12 C12           -0.8496     6.1672     1.2454 C.ar    
  13 C13           -2.0975     5.5730     1.2761 C.ar    
  14 C14           -2.2469     4.2577     0.8795 C.ar    
  15 C15           -1.9312     2.0679    -1.3654 C.2     
  16 O16           -1.3394     1.5126    -2.2666 O.2     
  17 N17           -3.1203     2.6566    -1.6020 N.am    
  18 C18           -3.6192     2.7220    -2.9021 C.ar    
  19 C19           -4.8925     3.2335    -3.1263 C.ar    
  20 C20           -5.3754     3.2927    -4.4215 C.ar    
  21 C21           -4.5648     2.8363    -5.4522 C.ar    
  22 C22           -3.3105     2.3406    -5.1567 C.ar    
  23 N23           -2.8744     2.3015    -3.9121 N.ar    
  24 H24           -0.9333    -0.5547     0.0179 H       
  25 H25            1.2052    -1.7698    -0.0098 H       
  26 H26            3.3300    -0.5253    -0.0339 H       
  27 H27            3.3151     1.9341    -0.0289 H       
  28 H28           -2.0148     1.6018     0.7123 H       
  29 H29            1.2220     5.9114     0.7947 H       
  30 H30           -0.7329     7.1949     1.5562 H       
  31 H31           -2.9558     6.1369     1.6102 H       
  32 H32           -3.2229     3.7958     0.9045 H       
  33 H33           -3.6289     3.0347    -0.8677 H       
  34 H34           -5.4965     3.5796    -2.3006 H       
  35 H35           -6.3608     3.6847    -4.6261 H       
  36 H36           -4.9120     2.8683    -6.4744 H       
  37 H37           -2.6765     1.9842    -5.9551 H       
@<TRIPOS>BOND
   1    1    2 ar
   2    1    6 ar
   3    1   10 1
   4    2    3 ar
   5    2   24 1
   6    3    4 ar
   7    3   25 1
   8    4    5 ar
   9    4   26 1
  10    5    6 ar
  11    5   27 1
  12    6    7 1
  13    7    8 1
  14    8   11 ar
  15    8    9 ar
  16    9   10 1
  17    9   14 ar
  18   10   15 1
  19   10   28 1
  20   11   12 ar
  21   11   29 1
  22   12   13 ar
  23   12   30 1
  24   13   14 ar
  25   13   31 1
  26   14   32 1
  27   15   16 2
  28   15   17 am
  29   17   18 1
  30   17   33 1
  31   18   19 ar
  32   18   23 ar
  33   19   20 ar
  34   19   34 1
  35   20   21 ar
  36   20   35 1
  37   21   22 ar
  38   21   36 1
  39   22   23 ar
  40   22   37 1

#	End of record

