#	Name: ASD00170199
#	Creating user name:	WinNT
#	Creation time:	15. 06. 2019 18:31

#	Modifying user name:	WinNT
#	Modification time:	15. 06. 2019 18:31

#	Program:	/corina/corina34_cracker 3.40 0067  02.08.2006

@<TRIPOS>MOLECULE
ASD00170199
  46   49    0    0    0
SMALL
NO_CHARGES


@<TRIPOS>ATOM
   1 C1            -1.0874     1.5230    -0.9478 C.2     
   2 C2            -1.3520     0.2393    -1.1993 C.2     
   3 C3            -1.3330    -0.5770     0.0062 C.2     
   4 C4            -1.0563     0.1383     1.1414 C.2     
   5 S5            -0.8118     1.7806     0.7701 S.3     
   6 C6            -1.0231     2.6203    -1.9901 C.3     
   7 C7            -2.2421     2.5425    -2.9076 C.3     
   8 C8            -1.9222     1.6355    -4.0927 C.3     
   9 C9            -0.9778     0.5197    -3.6509 C.3     
  10 C10           -1.6531    -0.3269    -2.5765 C.3     
  11 N11           -0.9819    -0.3996     2.4102 N.pl3   
  12 C12           -1.5844    -2.0182     0.0053 C.2     
  13 C13           -2.9662    -2.5274     0.1318 C.ar    
  14 O14           -0.6551    -2.7983    -0.0996 O.2     
  15 C15           -3.2196    -3.8967     0.0197 C.ar    
  16 C16           -4.5069    -4.3699     0.1377 C.ar    
  17 C17           -5.5583    -3.4826     0.3690 C.ar    
  18 C18           -5.3064    -2.1150     0.4811 C.ar    
  19 C19           -4.0191    -1.6403     0.3693 C.ar    
  20 C20           -6.9445    -3.9934     0.4954 C.ar    
  21 C21           -7.9975    -3.1096     0.7266 C.ar    
  22 C22           -9.2857    -3.5907     0.8428 C.ar    
  23 C23           -9.5331    -4.9471     0.7308 C.ar    
  24 C24           -8.4921    -5.8289     0.5019 C.ar    
  25 C25           -7.2006    -5.3587     0.3777 C.ar    
  26 H26           -1.0057     3.5904    -1.4934 H       
  27 H27           -0.1161     2.5031    -2.5831 H       
  28 H28           -3.0883     2.1344    -2.3549 H       
  29 H29           -2.4898     3.5404    -3.2694 H       
  30 H30           -2.8452     1.1990    -4.4743 H       
  31 H31           -1.4475     2.2216    -4.8796 H       
  32 H32           -0.7327    -0.1086    -4.5073 H       
  33 H33           -0.0639     0.9561    -3.2480 H       
  34 H34           -1.2814    -1.3499    -2.6358 H       
  35 H35           -2.7308    -0.3259    -2.7399 H       
  36 H36           -1.2053    -1.3323     2.5554 H       
  37 H37           -0.7062     0.1550     3.1568 H       
  38 H38           -2.4058    -4.5837    -0.1597 H       
  39 H39           -4.7030    -5.4284     0.0507 H       
  40 H40           -6.1211    -1.4290     0.6602 H       
  41 H41           -3.8242    -0.5816     0.4564 H       
  42 H42           -7.8055    -2.0505     0.8149 H       
  43 H43          -10.1023    -2.9069     1.0219 H       
  44 H44          -10.5428    -5.3191     0.8228 H       
  45 H45           -8.6910    -6.8869     0.4160 H       
  46 H46           -6.3887    -6.0480     0.1990 H       
@<TRIPOS>BOND
   1    1    2 2
   2    1    6 1
   3    1    5 1
   4    2    3 1
   5    2   10 1
   6    3    4 2
   7    3   12 1
   8    4    5 1
   9    4   11 1
  10    6    7 1
  11    6   26 1
  12    6   27 1
  13    7    8 1
  14    7   28 1
  15    7   29 1
  16    8    9 1
  17    8   30 1
  18    8   31 1
  19    9   10 1
  20    9   32 1
  21    9   33 1
  22   10   34 1
  23   10   35 1
  24   11   36 1
  25   11   37 1
  26   12   13 1
  27   12   14 2
  28   13   15 ar
  29   13   19 ar
  30   15   16 ar
  31   15   38 1
  32   16   17 ar
  33   16   39 1
  34   17   18 ar
  35   17   20 1
  36   18   19 ar
  37   18   40 1
  38   19   41 1
  39   20   21 ar
  40   20   25 ar
  41   21   22 ar
  42   21   42 1
  43   22   23 ar
  44   22   43 1
  45   23   24 ar
  46   23   44 1
  47   24   25 ar
  48   24   45 1
  49   25   46 1

#	End of record

