#	Name: ASD01890482
#	Creating user name:	WinNT
#	Creation time:	15. 06. 2019 19:51

#	Modifying user name:	WinNT
#	Modification time:	15. 06. 2019 19:51

#	Program:	/corina/corina34_cracker 3.40 0067  02.08.2006

@<TRIPOS>MOLECULE
ASD01890482
  41   43    0    0    0
SMALL
NO_CHARGES


@<TRIPOS>ATOM
   1 C1            -2.4937     0.4484     1.0490 C.2     
   2 C2            -1.9452    -0.9507     0.9360 C.3     
   3 C3            -0.5220    -0.8970     0.3770 C.3     
   4 O4            -1.8134     1.3950     0.7153 O.2     
   5 C5            -3.8571     0.6654     1.5586 C.ar    
   6 C6            -4.3697     1.9622     1.6650 C.ar    
   7 C7            -5.6481     2.1573     2.1434 C.ar    
   8 C8            -6.4233     1.0738     2.5184 C.ar    
   9 C9            -5.9233    -0.2127     2.4161 C.ar    
  10 C10           -4.6490    -0.4246     1.9336 C.ar    
  11 C11            0.0264    -2.2961     0.2639 C.ar    
  12 C12           -0.1569    -3.0172    -0.9015 C.ar    
  13 C13            0.3448    -4.2998    -1.0077 C.ar    
  14 C14            1.0336    -4.8644     0.0563 C.ar    
  15 C15            1.2165    -4.1385     1.2246 C.ar    
  16 C16            0.7169    -2.8544     1.3238 C.ar    
  17 O17            1.5277    -6.1261    -0.0454 O.3     
  18 C18            1.4195    -6.7590    -1.2430 C.ar    
  19 C19            2.4182    -6.6186    -2.1960 C.ar    
  20 C20            2.3060    -7.2635    -3.4125 C.ar    
  21 C21            1.1994    -8.0478    -3.6811 C.ar    
  22 C22            0.2027    -8.1893    -2.7332 C.ar    
  23 C23            0.3128    -7.5513    -1.5129 C.ar    
  24 H24           -1.9312    -1.4161     1.9215 H       
  25 H25           -2.5766    -1.5355     0.2670 H       
  26 H26           -0.5361    -0.4316    -0.6086 H       
  27 H27            0.1093    -0.3122     1.0460 H       
  28 H28           -3.7656     2.8087     1.3735 H       
  29 H29           -6.0453     3.1581     2.2262 H       
  30 H30           -7.4237     1.2330     2.8931 H       
  31 H31           -6.5343    -1.0531     2.7106 H       
  32 H32           -4.2620    -1.4294     1.8498 H       
  33 H33           -0.6931    -2.5773    -1.7295 H       
  34 H34            0.2007    -4.8629    -1.9180 H       
  35 H35            1.7522    -4.5756     2.0543 H       
  36 H36            0.8626    -2.2874     2.2314 H       
  37 H37            3.2824    -6.0056    -1.9870 H       
  38 H38            3.0831    -7.1546    -4.1546 H       
  39 H39            1.1132    -8.5505    -4.6330 H       
  40 H40           -0.6608    -8.8022    -2.9456 H       
  41 H41           -0.4640    -7.6654    -0.7713 H       
@<TRIPOS>BOND
   1    1    2 1
   2    1    4 2
   3    1    5 1
   4    2    3 1
   5    2   24 1
   6    2   25 1
   7    3   11 1
   8    3   26 1
   9    3   27 1
  10    5    6 ar
  11    5   10 ar
  12    6    7 ar
  13    6   28 1
  14    7    8 ar
  15    7   29 1
  16    8    9 ar
  17    8   30 1
  18    9   10 ar
  19    9   31 1
  20   10   32 1
  21   11   12 ar
  22   11   16 ar
  23   12   13 ar
  24   12   33 1
  25   13   14 ar
  26   13   34 1
  27   14   15 ar
  28   14   17 1
  29   15   16 ar
  30   15   35 1
  31   16   36 1
  32   17   18 1
  33   18   19 ar
  34   18   23 ar
  35   19   20 ar
  36   19   37 1
  37   20   21 ar
  38   20   38 1
  39   21   22 ar
  40   21   39 1
  41   22   23 ar
  42   22   40 1
  43   23   41 1

#	End of record

