#	Name: ASD01917668
#	Creating user name:	WinNT
#	Creation time:	15. 06. 2019 20:09

#	Modifying user name:	WinNT
#	Modification time:	15. 06. 2019 20:09

#	Program:	/corina/corina34_cracker 3.40 0067  02.08.2006

@<TRIPOS>MOLECULE
ASD01917668
  60   64    0    0    0
SMALL
NO_CHARGES


@<TRIPOS>ATOM
   1 C1            -0.0166     1.3756     0.0096 C.ar    
   2 C2             0.0021    -0.0041     0.0020 C.ar    
   3 C3             1.2194    -0.6823    -0.0132 C.ar    
   4 C4             2.4130     0.0370    -0.0207 C.ar    
   5 C5             1.2446    -2.1657    -0.0209 C.2     
   6 N6             0.1683    -2.9780    -0.0150 N.2     
   7 C7             2.3561    -2.9466    -0.0411 C.2     
   8 N8             1.9244    -4.2459    -0.0412 N.pl3   
   9 C9             0.5659    -4.2197    -0.0250 C.2     
  10 C10            2.7339    -5.3914    -0.0592 C.ar    
  11 C11            3.7522    -5.5081    -0.9954 C.ar    
  12 C12            4.5482    -6.6366    -1.0116 C.ar    
  13 C13            3.3194    -7.5341     0.8437 C.ar    
  14 C14            2.5214    -6.4071     0.8629 C.ar    
  15 C15           -0.3342    -5.4284    -0.0184 C.3     
  16 C16           -0.6173    -5.8361     1.4045 C.2     
  17 N17           -1.4058    -6.8997     1.6565 N.am    
  18 O18           -0.1357    -5.2071     2.3228 O.2     
  19 C19           -1.6949    -7.3147     3.0376 C.3     
  20 C20           -2.0049    -7.6725     0.5578 C.3     
  21 C21           -3.5095    -7.8021     0.8178 C.3     
  22 N22           -3.7251    -8.3602     2.1594 N.3     
  23 C23           -3.2124    -7.4591     3.1949 C.3     
  24 C24           -5.0655    -8.6438     2.3699 C.ar    
  25 N25           -5.9644    -8.4052     1.4171 N.ar    
  26 C26           -5.4912    -9.1876     3.5789 C.ar    
  27 C27           -6.8451    -9.4538     3.7406 C.ar    
  28 N28           -7.6809    -9.1817     2.7423 N.ar    
  29 C29           -7.2398    -8.6721     1.6100 C.ar    
  30 C30            4.3308    -7.6515    -0.0949 C.ar    
  31 F31            5.1099    -8.7551    -0.1128 F       
  32 F32            1.1494     3.4374     0.0100 F       
  33 C33            2.3849     1.4166    -0.0131 C.ar    
  34 C34            1.1724     2.0866     0.0021 C.ar    
  35 O35           -7.3077    -9.9836     4.8992 O.3     
  36 C36           -8.7131   -10.2274     4.9855 C.3     
  37 H37           -0.9596     1.9021     0.0169 H       
  38 H38           -0.9253    -0.5575     0.0082 H       
  39 H39            3.3587    -0.4845    -0.0322 H       
  40 H40            3.3816    -2.6081    -0.0545 H       
  41 H41            3.9216    -4.7170    -1.7109 H       
  42 H42            5.3405    -6.7277    -1.7399 H       
  43 H43            3.1544    -8.3245     1.5609 H       
  44 H44            1.7328    -6.3158     1.5951 H       
  45 H45           -1.2710    -5.1865    -0.5203 H       
  46 H46            0.1565    -6.2496    -0.5409 H       
  47 H47           -1.2131    -8.2710     3.2411 H       
  48 H48           -1.3250    -6.5601     3.7317 H       
  49 H49           -1.8398    -7.1544    -0.3868 H       
  50 H50           -1.5534    -8.6638     0.5187 H       
  51 H51           -3.9757    -6.8189     0.7536 H       
  52 H52           -3.9516    -8.4640     0.0731 H       
  53 H53           -3.4342    -7.8722     4.1789 H       
  54 H54           -3.6864    -6.4827     3.0946 H       
  55 H55           -4.7871    -9.3975     4.3704 H       
  56 H56           -7.9449    -8.4628     0.8192 H       
  57 H57            3.3094     1.9748    -0.0189 H       
  58 H58           -8.9492   -10.6510     5.9617 H       
  59 H59           -9.2532    -9.2895     4.8561 H       
  60 H60           -9.0090   -10.9278     4.2044 H       
@<TRIPOS>BOND
   1    1    2 ar
   2    1   34 ar
   3    1   37 1
   4    2    3 ar
   5    2   38 1
   6    3    4 ar
   7    3    5 1
   8    4   33 ar
   9    4   39 1
  10    5    6 1
  11    5    7 2
  12    6    9 2
  13    7    8 1
  14    7   40 1
  15    8    9 1
  16    8   10 1
  17    9   15 1
  18   10   11 ar
  19   10   14 ar
  20   11   12 ar
  21   11   41 1
  22   12   30 ar
  23   12   42 1
  24   13   14 ar
  25   13   30 ar
  26   13   43 1
  27   14   44 1
  28   15   16 1
  29   15   45 1
  30   15   46 1
  31   16   17 am
  32   16   18 2
  33   17   19 1
  34   17   20 1
  35   19   23 1
  36   19   47 1
  37   19   48 1
  38   20   21 1
  39   20   49 1
  40   20   50 1
  41   21   22 1
  42   21   51 1
  43   21   52 1
  44   22   23 1
  45   22   24 1
  46   23   53 1
  47   23   54 1
  48   24   25 ar
  49   24   26 ar
  50   25   29 ar
  51   26   27 ar
  52   26   55 1
  53   27   28 ar
  54   27   35 1
  55   28   29 ar
  56   29   56 1
  57   30   31 1
  58   32   34 1
  59   33   34 ar
  60   33   57 1
  61   35   36 1
  62   36   58 1
  63   36   59 1
  64   36   60 1

#	End of record

