#	Name: ASD01882097
#	Creating user name:	WinNT
#	Creation time:	15. 06. 2019 19:43

#	Modifying user name:	WinNT
#	Modification time:	15. 06. 2019 19:43

#	Program:	/corina/corina34_cracker 3.40 0067  02.08.2006

@<TRIPOS>MOLECULE
ASD01882097
  51   55    0    0    0
SMALL
NO_CHARGES


@<TRIPOS>ATOM
   1 C1            -0.0164     1.3569     0.0095 C.2     
   2 C2             0.0021    -0.0041     0.0020 C.2     
   3 C3            -1.2087    -0.7162     0.0102 C.2     
   4 C4            -2.3862    -0.0574     0.0255 C.2     
   5 N5            -2.4197     1.3075     0.0332 N.pl3   
   6 C6            -1.2553     2.0305     0.0309 C.2     
   7 C7            -3.4497     2.2079     0.0483 C.2     
   8 C8            -2.9006     3.4425     0.0495 C.2     
   9 N9            -1.5714     3.3178     0.0396 N.2     
  10 N10            1.6969    -1.0962     1.3585 N.3     
  11 Cl11           1.4697     2.2543     0.0001 Cl      
  12 C12           -4.9213     1.8835     0.0605 C.3     
  13 C13            2.8408    -2.0170     1.3669 C.3     
  14 C14            3.3065    -2.2392     2.8084 C.3     
  15 C15            2.1505    -2.8068     3.6304 C.3     
  16 C16            0.9473    -1.8681     3.5591 C.3     
  17 C17            0.5562    -1.6568     2.0940 C.3     
  18 O18            1.7890    -4.1054     3.1351 O.3     
  19 C19            2.5860    -5.0280     3.9016 C.3     
  20 C20            2.8409    -4.3539     5.2298 C.ar    
  21 C21            2.5760    -3.0028     5.0637 C.ar    
  22 C22            3.2546    -4.8309     6.4563 C.ar    
  23 C23            3.4048    -3.9607     7.5206 C.ar    
  24 C24            3.1412    -2.6136     7.3551 C.ar    
  25 C25            2.7261    -2.1350     6.1259 C.ar    
  26 C26            1.3152    -0.7434    -0.0155 C.3     
  27 C27           -5.4602     1.9049    -1.3713 C.3     
  28 F28           -4.7795     0.9546    -2.1400 F       
  29 F29           -6.8263     1.6037    -1.3600 F       
  30 F30           -5.2674     3.1759    -1.9232 F       
  31 H31           -1.1971    -1.7961     0.0040 H       
  32 H32           -3.3111    -0.6151     0.0314 H       
  33 H33           -3.4459     4.3746     0.0594 H       
  34 H34           -5.0715     0.8932     0.4905 H       
  35 H35           -5.4517     2.6239     0.6594 H       
  36 H36            2.5431    -2.9703     0.9302 H       
  37 H37            3.6560    -1.5890     0.7836 H       
  38 H38            4.1392    -2.9426     2.8174 H       
  39 H39            3.6267    -1.2899     3.2378 H       
  40 H40            0.1094    -2.3088     4.0994 H       
  41 H41            1.2066    -0.9094     4.0083 H       
  42 H42           -0.2861    -0.9673     2.0387 H       
  43 H43            0.2732    -2.6122     1.6522 H       
  44 H44            2.0411    -5.9600     4.0519 H       
  45 H45            3.5298    -5.2222     3.3919 H       
  46 H46            3.4607    -5.8832     6.5854 H       
  47 H47            3.7286    -4.3334     8.4812 H       
  48 H48            3.2587    -1.9346     8.1867 H       
  49 H49            2.5205    -1.0826     5.9971 H       
  50 H50            1.2127    -1.6520    -0.6088 H       
  51 H51            2.0842    -0.1077    -0.4544 H       
@<TRIPOS>BOND
   1    1    2 2
   2    1   11 1
   3    1    6 1
   4    2    3 1
   5    2   26 1
   6    3    4 2
   7    3   31 1
   8    4    5 1
   9    4   32 1
  10    5    6 1
  11    5    7 1
  12    6    9 2
  13    7    8 2
  14    7   12 1
  15    8    9 1
  16    8   33 1
  17   10   13 1
  18   10   26 1
  19   10   17 1
  20   12   27 1
  21   12   34 1
  22   12   35 1
  23   13   14 1
  24   13   36 1
  25   13   37 1
  26   14   15 1
  27   14   38 1
  28   14   39 1
  29   15   16 1
  30   15   18 1
  31   15   21 1
  32   16   17 1
  33   16   40 1
  34   16   41 1
  35   17   42 1
  36   17   43 1
  37   18   19 1
  38   19   20 1
  39   19   44 1
  40   19   45 1
  41   20   21 ar
  42   20   22 ar
  43   21   25 ar
  44   22   23 ar
  45   22   46 1
  46   23   24 ar
  47   23   47 1
  48   24   25 ar
  49   24   48 1
  50   25   49 1
  51   26   50 1
  52   26   51 1
  53   27   28 1
  54   27   29 1
  55   27   30 1

#	End of record

