#	Name: ASD01815619
#	Creating user name:	WinNT
#	Creation time:	15. 06. 2019 19:33

#	Modifying user name:	WinNT
#	Modification time:	15. 06. 2019 19:33

#	Program:	/corina/corina34_cracker 3.40 0067  02.08.2006

@<TRIPOS>MOLECULE
ASD01815619
  38   40    0    0    0
SMALL
NO_CHARGES


@<TRIPOS>ATOM
   1 C1             0.1035     1.4772     0.3885 C.ar    
   2 C2             0.0846     0.0900     0.3804 C.ar    
   3 C3             1.2533    -0.6295     0.2396 C.ar    
   4 C4             2.4696     0.0388     0.1030 C.ar    
   5 C5             2.4839     1.4435     0.1112 C.ar    
   6 C6             1.2939     2.1571     0.2549 C.ar    
   7 N7             3.6451    -0.6678    -0.0380 N.pl3   
   8 C8             4.8373    -0.0734    -0.1715 C.2     
   9 C9             4.9779     1.2999    -0.1781 C.2     
  10 C10            3.7768     2.1382    -0.0341 C.2     
  11 O11            3.8477     3.3547    -0.0342 O.2     
  12 C12            6.3047     1.9145    -0.3265 C.2     
  13 O13            7.2900     1.2123    -0.4447 O.2     
  14 O14            6.4290     3.2568    -0.3315 O.3     
  15 C15            3.5871    -2.1316    -0.0416 C.3     
  16 C16            3.4443    -2.6253    -1.4583 C.ar    
  17 C17            4.5647    -2.7671    -2.2558 C.ar    
  18 C18            4.4358    -3.2200    -3.5565 C.ar    
  19 C19            3.1794    -3.5325    -4.0597 C.ar    
  20 C20            2.0584    -3.3892    -3.2562 C.ar    
  21 C21            2.1936    -2.9409    -1.9562 C.ar    
  22 F22            1.2195    -1.9801     0.2344 F       
  23 F23            5.5303    -3.3579    -4.3363 F       
  24 O24            3.0489    -3.9775    -5.3377 O.3     
  25 C25            1.7267    -4.2796    -5.7877 C.3     
  26 H26           -0.8201     2.0266     0.4955 H       
  27 H27           -0.8548    -0.4322     0.4859 H       
  28 H28            1.3059     3.2370     0.2608 H       
  29 H29            5.7184    -0.6889    -0.2771 H       
  30 H30            7.3217     3.6146    -0.4317 H       
  31 H31            4.5031    -2.5326     0.3923 H       
  32 H32            2.7312    -2.4628     0.5466 H       
  33 H33            5.5410    -2.5238    -1.8632 H       
  34 H34            1.0804    -3.6312    -3.6453 H       
  35 H35            1.3203    -2.8294    -1.3306 H       
  36 H36            1.2991    -5.0615    -5.1602 H       
  37 H37            1.1081    -3.3843    -5.7248 H       
  38 H38            1.7644    -4.6232    -6.8215 H       
@<TRIPOS>BOND
   1    1    2 ar
   2    1    6 ar
   3    1   26 1
   4    2    3 ar
   5    2   27 1
   6    3    4 ar
   7    3   22 1
   8    4    5 ar
   9    4    7 1
  10    5    6 ar
  11    5   10 1
  12    6   28 1
  13    7    8 1
  14    7   15 1
  15    8    9 2
  16    8   29 1
  17    9   10 1
  18    9   12 1
  19   10   11 2
  20   12   13 2
  21   12   14 1
  22   14   30 1
  23   15   16 1
  24   15   31 1
  25   15   32 1
  26   16   17 ar
  27   16   21 ar
  28   17   18 ar
  29   17   33 1
  30   18   19 ar
  31   18   23 1
  32   19   20 ar
  33   19   24 1
  34   20   21 ar
  35   20   34 1
  36   21   35 1
  37   24   25 1
  38   25   36 1
  39   25   37 1
  40   25   38 1

#	End of record

