#	Name: ASD00431023
#	Creating user name:	WinNT
#	Creation time:	15. 06. 2019 18:35

#	Modifying user name:	WinNT
#	Modification time:	15. 06. 2019 18:35

#	Program:	/corina/corina34_cracker 3.40 0067  02.08.2006

@<TRIPOS>MOLECULE
ASD00431023
  23   23    0    0    0
SMALL
NO_CHARGES


@<TRIPOS>ATOM
   1 C1            -0.0178     1.4648     0.0101 C.3     
   2 N2             0.0021    -0.0041     0.0020 N.3     
   3 C3             1.4175     1.9944    -0.0008 C.3     
   4 C4             1.3975     3.5197    -0.1181 C.3     
   5 C5             2.1195     1.5919     1.2978 C.3     
   6 C6             3.5548     2.1215     1.2869 C.3     
   7 C7             3.5348     3.6469     1.1696 C.3     
   8 C8             2.8329     4.0493    -0.1290 C.3     
   9 H9            -0.5450     1.8259    -0.8730 H       
  10 H10           -0.5280     1.8163     0.9069 H       
  11 H11           -0.9349    -0.3784     0.0090 H       
  12 H12            0.5256    -0.3543    -0.7863 H       
  13 H13            1.9544     1.5716    -0.8500 H       
  14 H14            0.8974     3.8064    -1.0432 H       
  15 H15            0.8607     3.9424     0.7311 H       
  16 H16            1.5826     2.0146     2.1471 H       
  17 H17            2.1337     0.5052     1.3814 H       
  18 H18            4.0549     1.8348     2.2121 H       
  19 H19            4.0917     1.6988     0.4377 H       
  20 H20            2.9980     4.0696     2.0188 H       
  21 H21            4.5574     4.0242     1.1619 H       
  22 H22            3.3697     3.6266    -0.9782 H       
  23 H23            2.8186     5.1360    -0.2126 H       
@<TRIPOS>BOND
   1    1    2 1
   2    1    3 1
   3    1    9 1
   4    1   10 1
   5    2   11 1
   6    2   12 1
   7    3    4 1
   8    3    5 1
   9    3   13 1
  10    4    8 1
  11    4   14 1
  12    4   15 1
  13    5    6 1
  14    5   16 1
  15    5   17 1
  16    6    7 1
  17    6   18 1
  18    6   19 1
  19    7    8 1
  20    7   20 1
  21    7   21 1
  22    8   22 1
  23    8   23 1

#	End of record

