#	Name: ASD03090120
#	Creating user name:	WinNT
#	Creation time:	15. 06. 2019 20:28

#	Modifying user name:	WinNT
#	Modification time:	15. 06. 2019 20:28

#	Program:	/corina/corina34_cracker 3.40 0067  02.08.2006

@<TRIPOS>MOLECULE
ASD03090120
  57   60    0    0    0
SMALL
NO_CHARGES


@<TRIPOS>ATOM
   1 C1            -0.0186     1.5024     0.0154 C.2     
   2 C2             0.0014    -0.0045     0.0123 C.3     
   3 O3             1.0237     2.1227     0.0093 O.2     
   4 N4            -1.1946     2.1607     0.0195 N.am    
   5 C5            -1.2153     3.5574     0.1329 C.ar    
   6 C6            -2.1839     4.2939    -0.5363 C.ar    
   7 C7            -2.2048     5.6696    -0.4248 C.ar    
   8 C8            -1.2567     6.3175     0.3575 C.ar    
   9 C9            -0.2879     5.5802     1.0273 C.ar    
  10 C10           -0.2708     4.2041     0.9191 C.ar    
  11 S11           -1.2824     8.0736     0.4997 S.3     
  12 C12            0.1193     8.4145     1.5995 C.3     
  13 F13           -0.0833     7.7727     2.8260 F       
  14 F14            1.2978     7.9397     1.0139 F       
  15 C15            1.4287    -0.4880     0.0013 C.ar    
  16 C16            2.0905    -0.7116     1.1947 C.ar    
  17 C17            3.3986    -1.1547     1.1881 C.ar    
  18 C18            4.0493    -1.3757    -0.0191 C.ar    
  19 C19            3.3815    -1.1500    -1.2160 C.ar    
  20 C20            2.0717    -0.7123    -1.2023 C.ar    
  21 N21            5.3724    -1.8233    -0.0293 N.pl3   
  22 C22            6.0571    -2.0558    -1.3034 C.3     
  23 N23            9.6703    -2.5636    -0.7856 N.am    
  24 C24            8.5757    -1.7868    -1.0839 C.2     
  25 C25            7.4625    -2.5312    -1.0389 C.2     
  26 C26            7.8681    -3.8958    -0.6840 C.ar    
  27 C27            7.1752    -5.0914    -0.4895 C.ar    
  28 C28            7.8675    -6.2332    -0.1528 C.ar    
  29 C29            9.2469    -6.1995    -0.0067 C.ar    
  30 C30            9.9446    -5.0257    -0.1958 C.ar    
  31 C31            9.2652    -3.8628    -0.5359 C.ar    
  32 C32           10.9449    -2.1271    -0.7479 C.2     
  33 O33           11.8410    -2.8960    -0.4735 O.2     
  34 C34           11.2560    -0.6832    -1.0469 C.3     
  35 H35           -0.5013    -0.3764     0.9052 H       
  36 H36           -0.5139    -0.3729    -0.8747 H       
  37 H37           -2.0266     1.6678    -0.0562 H       
  38 H38           -2.9208     3.7903    -1.1443 H       
  39 H39           -2.9577     6.2424    -0.9458 H       
  40 H40            0.4492     6.0833     1.6355 H       
  41 H41            0.4798     3.6306     1.4427 H       
  42 H42            0.2013     9.4893     1.7611 H       
  43 H43            1.5841    -0.5393     2.1329 H       
  44 H44            3.9150    -1.3289     2.1205 H       
  45 H45            3.8846    -1.3208    -2.1563 H       
  46 H46            1.5504    -0.5412    -2.1325 H       
  47 H47            5.8378    -1.9803     0.8071 H       
  48 H48            5.5184    -2.8135    -1.8725 H       
  49 H49            6.0889    -1.1274    -1.8736 H       
  50 H50            8.6082    -0.7332    -1.3191 H       
  51 H51            6.1015    -5.1210    -0.6020 H       
  52 H52            7.3338    -7.1598    -0.0012 H       
  53 H53            9.7789    -7.1013     0.2579 H       
  54 H54           11.0182    -5.0102    -0.0794 H       
  55 H55           10.3313    -0.1509    -1.2698 H       
  56 H56           11.7373    -0.2284    -0.1810 H       
  57 H57           11.9245    -0.6259    -1.9059 H       
@<TRIPOS>BOND
   1    1    2 1
   2    1    3 2
   3    1    4 am
   4    2   15 1
   5    2   35 1
   6    2   36 1
   7    4    5 1
   8    4   37 1
   9    5    6 ar
  10    5   10 ar
  11    6    7 ar
  12    6   38 1
  13    7    8 ar
  14    7   39 1
  15    8    9 ar
  16    8   11 1
  17    9   10 ar
  18    9   40 1
  19   10   41 1
  20   11   12 1
  21   12   13 1
  22   12   14 1
  23   12   42 1
  24   15   16 ar
  25   15   20 ar
  26   16   17 ar
  27   16   43 1
  28   17   18 ar
  29   17   44 1
  30   18   19 ar
  31   18   21 1
  32   19   20 ar
  33   19   45 1
  34   20   46 1
  35   21   22 1
  36   21   47 1
  37   22   25 1
  38   22   48 1
  39   22   49 1
  40   23   24 1
  41   23   31 1
  42   23   32 am
  43   24   25 2
  44   24   50 1
  45   25   26 1
  46   26   27 ar
  47   26   31 ar
  48   27   28 ar
  49   27   51 1
  50   28   29 ar
  51   28   52 1
  52   29   30 ar
  53   29   53 1
  54   30   31 ar
  55   30   54 1
  56   32   33 2
  57   32   34 1
  58   34   55 1
  59   34   56 1
  60   34   57 1

#	End of record

