#	Name: ASD01917855
#	Creating user name:	WinNT
#	Creation time:	15. 06. 2019 20:10

#	Modifying user name:	WinNT
#	Modification time:	15. 06. 2019 20:10

#	Program:	/corina/corina34_cracker 3.40 0067  02.08.2006

@<TRIPOS>MOLECULE
ASD01917855
  46   50    0    0    0
SMALL
NO_CHARGES


@<TRIPOS>ATOM
   1 C1            -0.0070     1.3081    -0.0309 C.2     
   2 C2            -0.0069    -0.0380    -0.0233 C.2     
   3 C3            -1.2826    -0.8658     0.0036 C.3     
   4 C4            -2.4385     0.0102     0.4922 C.3     
   5 N5            -2.4055     1.2943    -0.2239 N.am    
   6 C6            -1.2451     2.1748    -0.0023 C.3     
   7 C7            -3.4039     1.6536    -1.0549 C.2     
   8 O8            -4.2984     0.8688    -1.3057 O.2     
   9 S9             1.6578     1.8712    -0.0716 S.3     
  10 C10            2.2123     0.2544    -0.0702 C.2     
  11 N11            1.2136    -0.5562    -0.0430 N.2     
  12 C12            3.6606    -0.1612    -0.0974 C.3     
  13 O13            4.0901    -0.3029    -1.4529 O.3     
  14 C14            5.3812    -0.6759    -1.6552 C.ar    
  15 C15            5.8652    -0.8323    -2.9459 C.ar    
  16 C16            7.1779    -1.2116    -3.1489 C.ar    
  17 C17            8.0093    -1.4352    -2.0670 C.ar    
  18 C18            7.5293    -1.2804    -0.7796 C.ar    
  19 C19            6.2190    -0.8953    -0.5714 C.ar    
  20 C20           -3.4117     2.9977    -1.6597 C.2     
  21 N21           -2.5754     3.9814    -1.4062 N.2     
  22 N22           -2.8446     5.0303    -2.0958 N.pl3   
  23 C23           -3.9321     4.8276    -2.9047 C.ar    
  24 C24           -4.3506     3.5031    -2.6699 C.ar    
  25 C25           -4.6261     5.6060    -3.8256 C.ar    
  26 C26           -5.7033     5.0812    -4.4832 C.ar    
  27 C27           -6.1180     3.7771    -4.2455 C.ar    
  28 C28           -5.4456     2.9858    -3.3560 C.ar    
  29 H29           -1.5011    -1.2311    -0.9999 H       
  30 H30           -1.1545    -1.7108     0.6801 H       
  31 H31           -3.3853    -0.4927     0.2952 H       
  32 H32           -2.3344     0.1871     1.5627 H       
  33 H33           -1.3327     2.6661     0.9668 H       
  34 H34           -1.1907     2.9222    -0.7938 H       
  35 H35            4.2658     0.5980     0.3981 H       
  36 H36            3.7752    -1.1129     0.4215 H       
  37 H37            5.2161    -0.6581    -3.7913 H       
  38 H38            7.5551    -1.3338    -4.1535 H       
  39 H39            9.0353    -1.7316    -2.2277 H       
  40 H40            8.1805    -1.4564     0.0639 H       
  41 H41            5.8445    -0.7745     0.4344 H       
  42 H42           -2.3430     5.8593    -2.0501 H       
  43 H43           -4.3149     6.6217    -4.0200 H       
  44 H44           -6.2395     5.6890    -5.1970 H       
  45 H45           -6.9717     3.3814    -4.7756 H       
  46 H46           -5.7720     1.9724    -3.1746 H       
@<TRIPOS>BOND
   1    1    2 2
   2    1    9 1
   3    1    6 1
   4    2    3 1
   5    2   11 1
   6    3    4 1
   7    3   29 1
   8    3   30 1
   9    4    5 1
  10    4   31 1
  11    4   32 1
  12    5    6 1
  13    5    7 am
  14    6   33 1
  15    6   34 1
  16    7    8 2
  17    7   20 1
  18    9   10 1
  19   10   11 2
  20   10   12 1
  21   12   13 1
  22   12   35 1
  23   12   36 1
  24   13   14 1
  25   14   15 ar
  26   14   19 ar
  27   15   16 ar
  28   15   37 1
  29   16   17 ar
  30   16   38 1
  31   17   18 ar
  32   17   39 1
  33   18   19 ar
  34   18   40 1
  35   19   41 1
  36   20   21 2
  37   20   24 1
  38   21   22 1
  39   22   23 1
  40   22   42 1
  41   23   25 ar
  42   23   24 ar
  43   24   28 ar
  44   25   26 ar
  45   25   43 1
  46   26   27 ar
  47   26   44 1
  48   27   28 ar
  49   27   45 1
  50   28   46 1

#	End of record

