#	Name: ASD04590660
#	Creating user name:	WinNT
#	Creation time:	15. 06. 2019 20:51

#	Modifying user name:	WinNT
#	Modification time:	15. 06. 2019 20:51

#	Program:	/corina/corina34_cracker 3.40 0067  02.08.2006

@<TRIPOS>MOLECULE
ASD04590660
  29   32    0    0    0
SMALL
NO_CHARGES


@<TRIPOS>ATOM
   1 N1            -0.0158     1.3173     0.0093 N.ar    
   2 C2             0.0021    -0.0041     0.0020 C.ar    
   3 N3             1.1223    -0.6969    -0.0124 N.ar    
   4 C4             2.3009    -0.0802    -0.0203 C.ar    
   5 C5             2.3206     1.3306    -0.0130 C.ar    
   6 C6             1.1078     2.0161     0.0023 C.ar    
   7 N7             3.5958    -0.5221    -0.0358 N.pl3   
   8 C8             4.4867     0.5620    -0.0390 C.2     
   9 C9             3.7266     1.7215    -0.0251 C.2     
  10 Cl10          -1.5085    -0.8595     0.0124 Cl      
  11 C11            3.9964    -1.9313    -0.0470 C.3     
  12 C12            3.4576    -2.6424     1.2067 C.3     
  13 C13            2.5257    -3.7666     0.7093 C.3     
  14 C14            3.0173    -4.0586    -0.7301 C.3     
  15 C15            3.3731    -2.6482    -1.2624 C.3     
  16 C16            5.8566     0.8208    -0.0519 C.2     
  17 N17            6.2622     2.0504    -0.0497 N.2     
  18 S18            4.8904     3.0486    -0.0292 S.3     
  19 H19            1.0852     3.0958     0.0080 H       
  20 H20            5.0830    -2.0100    -0.0829 H       
  21 H21            4.2826    -3.0670     1.7787 H       
  22 H22            2.8980    -1.9391     1.8234 H       
  23 H23            2.6296    -4.6531     1.3351 H       
  24 H24            1.4902    -3.4264     0.6972 H       
  25 H25            3.8989    -4.6994    -0.7147 H       
  26 H26            2.2226    -4.5073    -1.3262 H       
  27 H27            2.4745    -2.1273    -1.5930 H       
  28 H28            4.0955    -2.7184    -2.0757 H       
  29 H29            6.5683     0.0085    -0.0631 H       
@<TRIPOS>BOND
   1    1    2 ar
   2    1    6 ar
   3    2    3 ar
   4    2   10 1
   5    3    4 ar
   6    4    5 ar
   7    4    7 1
   8    5    6 ar
   9    5    9 1
  10    6   19 1
  11    7    8 1
  12    7   11 1
  13    8    9 2
  14    8   16 1
  15    9   18 1
  16   11   12 1
  17   11   15 1
  18   11   20 1
  19   12   13 1
  20   12   21 1
  21   12   22 1
  22   13   14 1
  23   13   23 1
  24   13   24 1
  25   14   15 1
  26   14   25 1
  27   14   26 1
  28   15   27 1
  29   15   28 1
  30   16   17 2
  31   16   29 1
  32   17   18 1

#	End of record

