#	Name: ASD00122009
#	Creating user name:	WinNT
#	Creation time:	15. 06. 2019 18:31

#	Modifying user name:	WinNT
#	Modification time:	15. 06. 2019 18:31

#	Program:	/corina/corina34_cracker 3.40 0067  02.08.2006

@<TRIPOS>MOLECULE
ASD00122009
  45   45    0    0    0
SMALL
NO_CHARGES


@<TRIPOS>ATOM
   1 C1            -0.0168     1.3898     0.0097 C.ar    
   2 C2             0.0021    -0.0041     0.0020 C.ar    
   3 C3            -1.1889    -0.7175     0.0096 C.ar    
   4 C4            -2.3948    -0.0510     0.0252 C.ar    
   5 C5            -2.4210     1.3457     0.0329 C.ar    
   6 C6            -1.2224     2.0640     0.0306 C.ar    
   7 C7            -3.7119     2.0612     0.0491 C.2     
   8 N8            -4.8671     1.3670     0.0564 N.am    
   9 O9            -3.7332     3.2769     0.0558 O.2     
  10 C10           -6.1484     2.0771     0.0724 C.3     
  11 C11           -7.2340     1.1841    -0.5317 C.3     
  12 C12           -6.5198     2.4266     1.5149 C.3     
  13 C13           -5.5001     3.4186     2.0780 C.3     
  14 C14           -6.9268     0.9368    -2.0100 C.3     
  15 O15            1.1516     2.0858     0.0023 O.3     
  16 C16            1.0574     3.5117     0.0108 C.3     
  17 C17            2.4631     4.1157     0.0006 C.3     
  18 O18            1.1880    -0.6655    -0.0133 O.3     
  19 C19            1.1344    -2.0935    -0.0205 C.3     
  20 C20            2.5566    -2.6572    -0.0376 C.3     
  21 H21           -1.1702    -1.7973     0.0029 H       
  22 H22           -3.3198    -0.6085     0.0310 H       
  23 H23           -1.2385     3.1438     0.0365 H       
  24 H24           -4.8501     0.3971     0.0510 H       
  25 H25           -6.0637     2.9927    -0.5130 H       
  26 H26           -7.2581     0.2321    -0.0014 H       
  27 H27           -8.2022     1.6761    -0.4392 H       
  28 H28           -7.5130     2.8751     1.5359 H       
  29 H29           -6.5176     1.5202     2.1204 H       
  30 H30           -4.5069     2.9700     2.0570 H       
  31 H31           -5.5023     4.3249     1.4725 H       
  32 H32           -5.7647     3.6675     3.1057 H       
  33 H33           -5.9585     0.4449    -2.1025 H       
  34 H34           -7.7002     0.3007    -2.4404 H       
  35 H35           -6.9027     1.8889    -2.5403 H       
  36 H36            0.5122     3.8451    -0.8722 H       
  37 H37            0.5292     3.8355     0.9076 H       
  38 H38            3.0082     3.7823     0.8837 H       
  39 H39            2.9912     3.7918    -0.8962 H       
  40 H40            2.3912     5.2033     0.0072 H       
  41 H41            0.6161    -2.4421     0.8729 H       
  42 H42            0.5984    -2.4325    -0.9070 H       
  43 H43            3.0749    -2.3086    -0.9310 H       
  44 H44            3.0926    -2.3182     0.8489 H       
  45 H45            2.5157    -3.7464    -0.0431 H       
@<TRIPOS>BOND
   1    1    2 ar
   2    1   15 1
   3    1    6 ar
   4    2    3 ar
   5    2   18 1
   6    3    4 ar
   7    3   21 1
   8    4    5 ar
   9    4   22 1
  10    5    6 ar
  11    5    7 1
  12    6   23 1
  13    7    8 am
  14    7    9 2
  15    8   10 1
  16    8   24 1
  17   10   11 1
  18   10   12 1
  19   10   25 1
  20   11   14 1
  21   11   26 1
  22   11   27 1
  23   12   13 1
  24   12   28 1
  25   12   29 1
  26   13   30 1
  27   13   31 1
  28   13   32 1
  29   14   33 1
  30   14   34 1
  31   14   35 1
  32   15   16 1
  33   16   17 1
  34   16   36 1
  35   16   37 1
  36   17   38 1
  37   17   39 1
  38   17   40 1
  39   18   19 1
  40   19   20 1
  41   19   41 1
  42   19   42 1
  43   20   43 1
  44   20   44 1
  45   20   45 1

#	End of record

