#	Name: ASD04590158
#	Creating user name:	WinNT
#	Creation time:	15. 06. 2019 20:50

#	Modifying user name:	WinNT
#	Modification time:	15. 06. 2019 20:50

#	Program:	/corina/corina34_cracker 3.40 0067  02.08.2006

@<TRIPOS>MOLECULE
ASD04590158
  45   47    0    0    0
SMALL
NO_CHARGES


@<TRIPOS>ATOM
   1 N1            -0.0153     1.2802     0.0091 N.pl3   
   2 N2             0.0021    -0.0041     0.0020 N.2     
   3 C3             1.2455    -0.4439    -0.0122 C.2     
   4 C4             2.0902     0.6962    -0.0142 C.2     
   5 C5             1.2522     1.7667    -0.0004 C.2     
   6 C6             1.6766    -1.8546    -0.0232 C.2     
   7 N7             0.7573    -2.8402    -0.0194 N.am    
   8 O8             2.8612    -2.1283    -0.0356 O.2     
   9 N9             3.4934     0.7148    -0.0266 N.am    
  10 C10            4.1518     1.8908    -0.0267 C.2     
  11 C11            1.1854    -4.2412    -0.0303 C.3     
  12 C12            5.6586     1.9108    -0.0400 C.3     
  13 O13            3.5315     2.9331    -0.0160 O.2     
  14 C14            6.1511     3.3606    -0.0373 C.3     
  15 C15            6.1909     1.1969     1.2056 C.3     
  16 C16            7.7193     1.2735     1.2175 C.3     
  17 N17            8.1401     2.6804     1.2204 N.3     
  18 C18            7.6807     3.3745     0.0107 C.3     
  19 C19           -0.0451    -5.1505    -0.0233 C.3     
  20 C20            0.1891    -6.6571    -0.1512 C.3     
  21 C21           -0.2435    -6.0613     1.1900 C.3     
  22 C22            9.5969     2.7938     1.3713 C.3     
  23 H23           -0.8184     1.8243     0.0160 H       
  24 H24            1.5405     2.8075     0.0021 H       
  25 H25           -0.1878    -2.6219    -0.0095 H       
  26 H26            3.9895    -0.1187    -0.0351 H       
  27 H27            1.7746    -4.4341    -0.9268 H       
  28 H28            1.7913    -4.4429     0.8531 H       
  29 H29            6.0217     1.4044    -0.9343 H       
  30 H30            5.8109     3.8622    -0.9432 H       
  31 H31            5.7549     3.8779     0.8365 H       
  32 H32            5.7953     1.6801     2.0990 H       
  33 H33            5.8790     0.1526     1.1877 H       
  34 H34            8.1008     0.7785     2.1106 H       
  35 H35            8.1147     0.7780     0.3308 H       
  36 H36            8.0763     2.8691    -0.8704 H       
  37 H37            8.0342     4.4055     0.0271 H       
  38 H38           -0.9371    -4.7381    -0.4947 H       
  39 H39           -0.5490    -7.2358    -0.7063 H       
  40 H40            1.2198    -7.0004    -0.2403 H       
  41 H41            0.5025    -6.0126     1.9832 H       
  42 H42           -1.2663    -6.2480     1.5172 H       
  43 H43           10.0888     2.2836     0.5432 H       
  44 H44            9.8815     3.8460     1.3703 H       
  45 H45            9.9014     2.3360     2.3125 H       
@<TRIPOS>BOND
   1    1    2 1
   2    1    5 1
   3    1   23 1
   4    2    3 2
   5    3    4 1
   6    3    6 1
   7    4    5 2
   8    4    9 1
   9    5   24 1
  10    6    7 am
  11    6    8 2
  12    7   11 1
  13    7   25 1
  14    9   10 am
  15    9   26 1
  16   10   12 1
  17   10   13 2
  18   11   19 1
  19   11   27 1
  20   11   28 1
  21   12   14 1
  22   12   15 1
  23   12   29 1
  24   14   18 1
  25   14   30 1
  26   14   31 1
  27   15   16 1
  28   15   32 1
  29   15   33 1
  30   16   17 1
  31   16   34 1
  32   16   35 1
  33   17   18 1
  34   17   22 1
  35   18   36 1
  36   18   37 1
  37   19   20 1
  38   19   21 1
  39   19   38 1
  40   20   21 1
  41   20   39 1
  42   20   40 1
  43   21   41 1
  44   21   42 1
  45   22   43 1
  46   22   44 1
  47   22   45 1

#	End of record

