#	Name: ASD01915002
#	Creating user name:	WinNT
#	Creation time:	15. 06. 2019 20:04

#	Modifying user name:	WinNT
#	Modification time:	15. 06. 2019 20:04

#	Program:	/corina/corina34_cracker 3.40 0067  02.08.2006

@<TRIPOS>MOLECULE
ASD01915002
  45   48    0    0    0
SMALL
NO_CHARGES


@<TRIPOS>ATOM
   1 C1            -0.2256     1.4513    -1.1230 C.ar    
   2 C2            -0.2368     0.0829    -1.2791 C.ar    
   3 C3             0.9509    -0.6426    -1.1521 C.ar    
   4 C4             2.1455     0.0245    -0.8671 C.ar    
   5 C5             2.1477     1.3931    -0.7125 C.ar    
   6 C6             0.9645     2.1106    -0.8397 C.ar    
   7 O7             0.9711     3.4595    -0.6866 O.3     
   8 C8             2.2285     4.0734    -0.3965 C.3     
   9 C9             2.0413     5.5626    -0.2617 C.2     
  10 C10            0.8304     6.2561    -0.3906 C.2     
  11 N11            2.9827     6.4383     0.0028 N.2     
  12 C12            1.1507     7.5689    -0.1913 C.2     
  13 C13            0.3274     8.7876    -0.1920 C.2     
  14 N14            2.5041     7.6192     0.0607 N.pl3   
  15 C15            3.1748     8.8911     0.3558 C.3     
  16 C16            2.4442    10.0245    -0.3627 C.3     
  17 N17            0.9969     9.9657    -0.1721 N.am    
  18 O18           -0.8880     8.7407    -0.2098 O.2     
  19 C19            0.2866    11.1525     0.0409 C.ar    
  20 C20           -1.0052    12.5692     1.4815 C.ar    
  21 C21           -0.3050    11.3971     1.2732 C.ar    
  22 C22            0.1771    12.0898    -0.9780 C.ar    
  23 C23           -0.5239    13.2606    -0.7654 C.ar    
  24 C24           -1.1171    13.5004     0.4627 C.ar    
  25 F25           -1.8024    14.6463     0.6685 F       
  26 C26            3.1507     9.1433     1.8647 C.3     
  27 C27            0.9439    -2.0655    -1.3131 C.1     
  28 N28            0.9383    -3.1943    -1.4409 N.1     
  29 H29           -1.1422     2.0133    -1.2254 H       
  30 H30           -1.1621    -0.4287    -1.4990 H       
  31 H31            3.0655    -0.5324    -0.7677 H       
  32 H32            3.0704     1.9094    -0.4922 H       
  33 H33            2.6227     3.6708     0.5366 H       
  34 H34            2.9289     3.8670    -1.2058 H       
  35 H35           -0.1446     5.8424    -0.6019 H       
  36 H36            4.2076     8.8468     0.0100 H       
  37 H37            2.8110    10.9776     0.0183 H       
  38 H38            2.6637     9.9654    -1.4288 H       
  39 H39           -1.4657    12.7597     2.4396 H       
  40 H40           -0.2180    10.6712     2.0681 H       
  41 H41            0.6402    11.9035    -1.9357 H       
  42 H42           -0.6093    13.9898    -1.5575 H       
  43 H43            3.6686     8.3324     2.3769 H       
  44 H44            3.6489    10.0878     2.0832 H       
  45 H45            2.1175     9.1893     2.2089 H       
@<TRIPOS>BOND
   1    1    2 ar
   2    1    6 ar
   3    1   29 1
   4    2    3 ar
   5    2   30 1
   6    3    4 ar
   7    3   27 1
   8    4    5 ar
   9    4   31 1
  10    5    6 ar
  11    5   32 1
  12    6    7 1
  13    7    8 1
  14    8    9 1
  15    8   33 1
  16    8   34 1
  17    9   11 2
  18    9   10 1
  19   10   12 2
  20   10   35 1
  21   11   14 1
  22   12   14 1
  23   12   13 1
  24   13   17 am
  25   13   18 2
  26   14   15 1
  27   15   16 1
  28   15   26 1
  29   15   36 1
  30   16   17 1
  31   16   37 1
  32   16   38 1
  33   17   19 1
  34   19   22 ar
  35   19   21 ar
  36   20   21 ar
  37   20   24 ar
  38   20   39 1
  39   21   40 1
  40   22   23 ar
  41   22   41 1
  42   23   24 ar
  43   23   42 1
  44   24   25 1
  45   26   43 1
  46   26   44 1
  47   26   45 1
  48   27   28 3

#	End of record

