#	Name: ASD08820006
#	Creating user name:	WinNT
#	Creation time:	15. 06. 2019 21:19

#	Modifying user name:	WinNT
#	Modification time:	15. 06. 2019 21:19

#	Program:	/corina/corina34_cracker 3.40 0067  02.08.2006

@<TRIPOS>MOLECULE
ASD08820006
  42   44    0    0    0
SMALL
NO_CHARGES


@<TRIPOS>ATOM
   1 C1            -0.0014     1.2202     0.4996 C.2     
   2 N2             2.0322     0.8100    -0.0130 N.pl3   
   3 O3             0.1399    -1.7430    -2.3014 O.2     
   4 C4            -0.0133     0.1868    -0.4734 C.2     
   5 N5             1.2622     1.5340     0.7170 N.2     
   6 O6            -2.2969     1.4544     0.8481 O.2     
   7 C7             1.2924    -0.0441    -0.7719 C.2     
   8 N8            -1.1361    -0.4602    -1.0129 N.am    
   9 O9             3.2695     5.6769    -0.4191 O.3     
  10 C10           -0.9766    -1.4292    -1.9360 C.2     
  11 N11           -2.0547    -2.0504    -2.4540 N.am    
  12 C12           -1.1791     1.8322     1.1419 C.2     
  13 N13           -1.0165     2.8105     2.0546 N.am    
  14 C14            3.4281     0.8884    -0.0266 C.ar    
  15 C15            4.1893    -0.2563     0.0632 C.ar    
  16 C16            5.5797    -0.1892     0.0510 C.ar    
  17 C17            6.2249     1.0053    -0.0500 C.ar    
  18 C18            4.0698     2.1406    -0.1384 C.ar    
  19 C19            5.4854     2.1967    -0.1442 C.ar    
  20 C20            6.1263     3.4439    -0.2495 C.ar    
  21 C21            5.3828     4.5791    -0.3390 C.ar    
  22 C22            3.9858     4.5256    -0.3281 C.ar    
  23 C23            3.3315     3.3295    -0.2375 C.ar    
  24 C24            4.0096     6.8949    -0.5225 C.3     
  25 C25            3.0398     8.0747    -0.6147 C.3     
  26 H26            1.6713    -0.7681    -1.4780 H       
  27 H27           -2.0267    -0.2099    -0.7214 H       
  28 H28           -1.9399    -2.7478    -3.1183 H       
  29 H29           -2.9453    -1.8001    -2.1625 H       
  30 H30           -0.1248     3.1119     2.2889 H       
  31 H31           -1.7913     3.2132     2.4771 H       
  32 H32            3.7018    -1.2166     0.1443 H       
  33 H33            6.1561    -1.0997     0.1233 H       
  34 H34            7.3044     1.0374    -0.0575 H       
  35 H35            7.2048     3.5000    -0.2588 H       
  36 H36            5.8784     5.5353    -0.4194 H       
  37 H37            2.2519     3.3003    -0.2302 H       
  38 H38            4.6415     7.0119     0.3579 H       
  39 H39            4.6331     6.8664    -1.4161 H       
  40 H40            3.6043     9.0038    -0.6935 H       
  41 H41            2.4079     7.9576    -1.4951 H       
  42 H42            2.4162     8.1031     0.2789 H       
@<TRIPOS>BOND
   1    1    4 1
   2    1    5 2
   3    1   12 1
   4    2    5 1
   5    2    7 1
   6    2   14 1
   7    3   10 2
   8    4    7 2
   9    4    8 1
  10    6   12 2
  11    7   26 1
  12    8   10 am
  13    8   27 1
  14    9   22 1
  15    9   24 1
  16   10   11 am
  17   11   28 1
  18   11   29 1
  19   12   13 am
  20   13   30 1
  21   13   31 1
  22   14   15 ar
  23   14   18 ar
  24   15   16 ar
  25   15   32 1
  26   16   17 ar
  27   16   33 1
  28   17   19 ar
  29   17   34 1
  30   18   19 ar
  31   18   23 ar
  32   19   20 ar
  33   20   21 ar
  34   20   35 1
  35   21   22 ar
  36   21   36 1
  37   22   23 ar
  38   23   37 1
  39   24   25 1
  40   24   38 1
  41   24   39 1
  42   25   40 1
  43   25   41 1
  44   25   42 1

#	End of record

