#	Name: ASD05313326
#	Creating user name:	WinNT
#	Creation time:	15. 06. 2019 20:59

#	Modifying user name:	WinNT
#	Modification time:	15. 06. 2019 20:59

#	Program:	/corina/corina34_cracker 3.40 0067  02.08.2006

@<TRIPOS>MOLECULE
ASD05313326
  42   44    0    0    0
SMALL
NO_CHARGES


@<TRIPOS>ATOM
   1 C1            -0.0239     1.5131    -0.0837 C.2     
   2 C2            -0.0109     0.0071    -0.2245 C.3     
   3 N3             1.0886     2.2825    -0.1566 N.pl3   
   4 N4             1.3319    -0.3709    -0.7019 N.am    
   5 C5             2.4952     0.2854    -0.0860 C.3     
   6 C6             2.4459     1.7865    -0.3924 C.3     
   7 N7            -1.0554     2.2782     0.1260 N.2     
   8 C8            -0.6569     3.5551     0.1984 C.2     
   9 C9             0.6940     3.5835     0.0251 C.2     
  10 C10            1.4888    -1.2913    -1.6738 C.2     
  11 O11            2.6043    -1.5898    -2.0541 O.2     
  12 C12            0.3060    -1.9371    -2.2768 C.ar    
  13 C13           -0.2055    -3.1170    -1.7289 C.ar    
  14 C14           -1.3116    -3.7154    -2.2978 C.ar    
  15 C15           -1.9141    -3.1499    -3.4091 C.ar    
  16 C16           -1.4127    -1.9811    -3.9571 C.ar    
  17 C17           -0.3110    -1.3685    -3.3947 C.ar    
  18 Cl18           0.3112     0.1008    -4.0786 Cl      
  19 Cl19          -3.3042    -3.9099    -4.1188 Cl      
  20 Cl20           0.5490    -3.8283    -0.3366 Cl      
  21 C21            1.5635     4.7801     0.0341 C.ar    
  22 C22            2.8547     4.7119    -0.4906 C.ar    
  23 C23            3.6605     5.8317    -0.4796 C.ar    
  24 C24            3.1910     7.0203     0.0506 C.ar    
  25 C25            1.9118     7.0945     0.5723 C.ar    
  26 C26            1.0939     5.9833     0.5621 C.ar    
  27 H27           -0.2066    -0.4582     0.7416 H       
  28 H28           -0.7641    -0.3051    -0.9479 H       
  29 H29            2.4707     0.1328     0.9930 H       
  30 H30            3.4120    -0.1399    -0.4944 H       
  31 H31            2.7191     1.9546    -1.4341 H       
  32 H32            3.1442     2.3138     0.2575 H       
  33 H33           -1.2938     4.4109     0.3669 H       
  34 H34           -1.7079    -4.6271    -1.8756 H       
  35 H35           -1.8874    -1.5456    -4.8240 H       
  36 H36            3.2225     3.7845    -0.9041 H       
  37 H37            4.6600     5.7803    -0.8854 H       
  38 H38            3.8260     7.8939     0.0575 H       
  39 H39            1.5513     8.0251     0.9851 H       
  40 H40            0.0941     6.0436     0.9660 H       
  41 Cl41           9.6600    13.0251     5.9930 Cl      
  42 H42            9.6600    14.3951     5.9930 H       
@<TRIPOS>BOND
   1    1    2 1
   2    1    3 1
   3    1    7 2
   4    2    4 1
   5    2   27 1
   6    2   28 1
   7    3    6 1
   8    3    9 1
   9    4    5 1
  10    4   10 am
  11    5    6 1
  12    5   29 1
  13    5   30 1
  14    6   31 1
  15    6   32 1
  16    7    8 1
  17    8    9 2
  18    8   33 1
  19    9   21 1
  20   10   11 2
  21   10   12 1
  22   12   13 ar
  23   12   17 ar
  24   13   14 ar
  25   13   20 1
  26   14   15 ar
  27   14   34 1
  28   15   16 ar
  29   15   19 1
  30   16   17 ar
  31   16   35 1
  32   17   18 1
  33   21   22 ar
  34   21   26 ar
  35   22   23 ar
  36   22   36 1
  37   23   24 ar
  38   23   37 1
  39   24   25 ar
  40   24   38 1
  41   25   26 ar
  42   25   39 1
  43   26   40 1
  44   41   42 1

#	End of record

