#	Name: ASD05850004
#	Creating user name:	WinNT
#	Creation time:	15. 06. 2019 21:04

#	Modifying user name:	WinNT
#	Modification time:	15. 06. 2019 21:04

#	Program:	/corina/corina34_cracker 3.40 0067  02.08.2006

@<TRIPOS>MOLECULE
ASD05850004
  23   24    0    0    0
SMALL
NO_CHARGES


@<TRIPOS>ATOM
   1 C1            -0.0163     1.3500     0.0095 C.2     
   2 C2             0.0021    -0.0041     0.0020 C.2     
   3 C3             1.2220    -0.6891    -0.0129 C.2     
   4 C4             2.4018     0.0382    -0.0203 C.2     
   5 C5             2.3348     1.4531    -0.0125 C.2     
   6 N6             1.1365     2.0672     0.0023 N.am    
   7 C7             3.7118    -0.6531    -0.0356 C.ar    
   8 C8             4.4902    -0.7097     1.1254 C.ar    
   9 C9             5.7138    -1.3587     1.1019 C.ar    
  10 C10            6.1630    -1.9479    -0.0651 C.ar    
  11 C11            5.3956    -1.8938    -1.2154 C.ar    
  12 C12            4.1722    -1.2553    -1.2054 C.ar    
  13 O13            3.3603     2.1136    -0.0193 O.2     
  14 O14            4.0479    -0.1298     2.2718 O.3     
  15 H15           -0.9639     1.8682     0.0167 H       
  16 H16           -0.9262    -0.5560     0.0080 H       
  17 H17            1.2440    -1.7688    -0.0182 H       
  18 H18            1.0964     3.0364     0.0072 H       
  19 H19            6.3176    -1.4041     1.9962 H       
  20 H20            7.1177    -2.4526    -0.0793 H       
  21 H21            5.7535    -2.3566    -2.1232 H       
  22 H22            3.5760    -1.2150    -2.1050 H       
  23 H23            3.5233    -0.7174     2.8328 H       
@<TRIPOS>BOND
   1    1    2 2
   2    1    6 1
   3    1   15 1
   4    2    3 1
   5    2   16 1
   6    3    4 2
   7    3   17 1
   8    4    5 1
   9    4    7 1
  10    5   13 2
  11    5    6 am
  12    6   18 1
  13    7    8 ar
  14    7   12 ar
  15    8    9 ar
  16    8   14 1
  17    9   10 ar
  18    9   19 1
  19   10   11 ar
  20   10   20 1
  21   11   12 ar
  22   11   21 1
  23   12   22 1
  24   14   23 1

#	End of record

