#	Name: ASD01120349
#	Creating user name:	WinNT
#	Creation time:	15. 06. 2019 18:59

#	Modifying user name:	WinNT
#	Modification time:	15. 06. 2019 18:59

#	Program:	/corina/corina34_cracker 3.40 0067  02.08.2006

@<TRIPOS>MOLECULE
ASD01120349
  39   40    0    0    0
SMALL
NO_CHARGES


@<TRIPOS>ATOM
   1 C1            -0.0187     1.5258     0.0104 C.3     
   2 C2             0.0021    -0.0041     0.0020 C.3     
   3 C3             0.7074    -0.4901    -1.2379 C.2     
   4 C4             2.0386    -0.7391    -1.3575 C.2     
   5 N5             2.3049    -1.1687    -2.6436 N.pl3   
   6 C6             1.1284    -1.1943    -3.3542 C.ar    
   7 C7             0.1020    -0.7751    -2.4852 C.ar    
   8 C8            -1.2173    -0.7066    -2.9523 C.ar    
   9 C9            -1.4985    -1.0460    -4.2435 C.ar    
  10 C10           -2.9185    -0.9712    -4.7426 C.3     
  11 C11           -3.1844     0.4215    -5.3176 C.3     
  12 C12           -2.3090     0.6386    -6.5535 C.3     
  13 C13           -4.6586     0.5383    -5.7099 C.3     
  14 C14           -0.4878    -1.4593    -5.1027 C.ar    
  15 C15            0.8154    -1.5397    -4.6662 C.ar    
  16 N16            1.8824    -1.9811    -5.5923 N.pl3   
  17 O17            1.6080    -2.2738    -6.7423 O.2     
  18 O18            3.0348    -2.0516    -5.2043 O.2     
  19 C19            3.0347    -0.5773    -0.2901 C.2     
  20 O20            2.6898    -0.1911     0.8098 O.2     
  21 O21            4.3318    -0.8571    -0.5302 O.3     
  22 H22            1.0039     1.9031     0.0027 H       
  23 H23           -0.5459     1.8868    -0.8726 H       
  24 H24           -0.5289     1.8773     0.9072 H       
  25 H25            0.5293    -0.3651     0.8851 H       
  26 H26           -1.0205    -0.3814     0.0098 H       
  27 H27            3.1783    -1.4119    -2.9884 H       
  28 H28           -2.0095    -0.3865    -2.2918 H       
  29 H29           -3.0704    -1.7203    -5.5197 H       
  30 H30           -3.6043    -1.1603    -3.9167 H       
  31 H31           -2.9471     1.1757    -4.5673 H       
  32 H32           -2.5462    -0.1157    -7.3038 H       
  33 H33           -2.4984     1.6308    -6.9631 H       
  34 H34           -1.2587     0.5553    -6.2740 H       
  35 H35           -5.2822     0.3837    -4.8294 H       
  36 H36           -4.8480     1.5305    -6.1195 H       
  37 H37           -4.8958    -0.2159    -6.4602 H       
  38 H38           -0.7276    -1.7240    -6.1220 H       
  39 H39            4.9502    -0.7354     0.2031 H       
@<TRIPOS>BOND
   1    1    2 1
   2    1   22 1
   3    1   23 1
   4    1   24 1
   5    2    3 1
   6    2   25 1
   7    2   26 1
   8    3    4 2
   9    3    7 1
  10    4    5 1
  11    4   19 1
  12    5    6 1
  13    5   27 1
  14    6    7 ar
  15    6   15 ar
  16    7    8 ar
  17    8    9 ar
  18    8   28 1
  19    9   10 1
  20    9   14 ar
  21   10   11 1
  22   10   29 1
  23   10   30 1
  24   11   12 1
  25   11   13 1
  26   11   31 1
  27   12   32 1
  28   12   33 1
  29   12   34 1
  30   13   35 1
  31   13   36 1
  32   13   37 1
  33   14   15 ar
  34   14   38 1
  35   15   16 1
  36   16   17 2
  37   16   18 2
  38   19   20 2
  39   19   21 1
  40   21   39 1

#	End of record

