#	Name: ASD05720287
#	Creating user name:	WinNT
#	Creation time:	15. 06. 2019 21:02

#	Modifying user name:	WinNT
#	Modification time:	15. 06. 2019 21:02

#	Program:	/corina/corina34_cracker 3.40 0067  02.08.2006

@<TRIPOS>MOLECULE
ASD05720287
  51   54    0    0    0
SMALL
NO_CHARGES


@<TRIPOS>ATOM
   1 C1             0.4956     1.0382     1.0965 C.2     
   2 N2             0.3990    -0.2278     0.6697 N.am    
   3 C3             1.6517    -0.6089     0.0004 C.3     
   4 C4             2.5238     0.6577     0.1001 C.3     
   5 N5             1.6699     1.6180     0.8151 N.am    
   6 O6            -0.4030     1.6108     1.6818 O.2     
   7 C7             1.3906    -0.9672    -1.4640 C.3     
   8 C8             0.5324    -2.2319    -1.5344 C.3     
   9 C9             0.6553     0.1869    -2.1482 C.3     
  10 C10            2.0440     2.9907     1.1642 C.3     
  11 O11            4.2074     4.1997     3.8560 O.3     
  12 C12            4.8894     3.0565     3.3132 C.3     
  13 O13            3.9679     2.3074     2.5100 O.3     
  14 C14            2.7057     3.0038     2.5436 C.3     
  15 C15            3.1110     4.4448     2.9428 C.3     
  16 C16            6.0642     3.5209     2.4499 C.3     
  17 C17            5.4089     2.1786     4.4535 C.3     
  18 C18           -1.6994    -3.1293     0.6440 C.2     
  19 N19           -0.6402    -2.3217     0.4923 N.2     
  20 C20           -0.7086    -1.0502     0.8334 C.2     
  21 C21           -1.9043    -0.5233     1.3648 C.2     
  22 C22           -2.9753    -1.3334     1.5199 C.2     
  23 N23           -2.8763    -2.6482     1.1577 N.pl3   
  24 N24           -3.7880    -3.7095     1.1958 N.2     
  25 C25           -3.2024    -4.7892     0.7293 C.2     
  26 C26           -1.8999    -4.4755     0.3679 C.2     
  27 Br27          -0.6271    -5.6664    -0.3655 Br      
  28 H28            2.1254    -1.4415     0.5204 H       
  29 H29            3.4305     0.4540     0.6697 H       
  30 H30            2.7708     1.0314    -0.8936 H       
  31 H31            2.3400    -1.1438    -1.9697 H       
  32 H32           -0.4866    -1.9971    -1.2267 H       
  33 H33            0.5252    -2.6096    -2.5568 H       
  34 H34            0.9471    -2.9899    -0.8699 H       
  35 H35            1.2667     1.0879    -2.0980 H       
  36 H36            0.4693    -0.0683    -3.1914 H       
  37 H37           -0.2941     0.3635    -1.6425 H       
  38 H38            2.7430     3.3766     0.4222 H       
  39 H39            1.1519     3.6168     1.1832 H       
  40 H40            2.0452     2.5679     3.2931 H       
  41 H41            2.2903     4.9556     3.4465 H       
  42 H42            3.4461     5.0108     2.0736 H       
  43 H43            6.7702     4.0776     3.0662 H       
  44 H44            6.5636     2.6531     2.0190 H       
  45 H45            5.6957     4.1626     1.6497 H       
  46 H46            4.5738     1.8647     5.0798 H       
  47 H47            5.9029     1.2997     4.0392 H       
  48 H48            6.1201     2.7460     5.0538 H       
  49 H49           -1.9634     0.5179     1.6456 H       
  50 H50           -3.8984    -0.9466     1.9255 H       
  51 H51           -3.6615    -5.7626     0.6390 H       
@<TRIPOS>BOND
   1    1    2 am
   2    1    5 am
   3    1    6 2
   4    2    3 1
   5    2   20 1
   6    3    4 1
   7    3    7 1
   8    3   28 1
   9    4    5 1
  10    4   29 1
  11    4   30 1
  12    5   10 1
  13    7    8 1
  14    7    9 1
  15    7   31 1
  16    8   32 1
  17    8   33 1
  18    8   34 1
  19    9   35 1
  20    9   36 1
  21    9   37 1
  22   10   14 1
  23   10   38 1
  24   10   39 1
  25   11   12 1
  26   11   15 1
  27   12   13 1
  28   12   16 1
  29   12   17 1
  30   13   14 1
  31   14   15 1
  32   14   40 1
  33   15   41 1
  34   15   42 1
  35   16   43 1
  36   16   44 1
  37   16   45 1
  38   17   46 1
  39   17   47 1
  40   17   48 1
  41   18   19 1
  42   18   23 1
  43   18   26 2
  44   19   20 2
  45   20   21 1
  46   21   22 2
  47   21   49 1
  48   22   23 1
  49   22   50 1
  50   23   24 1
  51   24   25 2
  52   25   26 1
  53   25   51 1
  54   26   27 1

#	End of record

