#	Name: ASD03430616
#	Creating user name:	WinNT
#	Creation time:	15. 06. 2019 20:41

#	Modifying user name:	WinNT
#	Modification time:	15. 06. 2019 20:41

#	Program:	/corina/corina34_cracker 3.40 0067  02.08.2006

@<TRIPOS>MOLECULE
ASD03430616
  56   60    0    0    0
SMALL
NO_CHARGES


@<TRIPOS>ATOM
   1 N1            -0.0161     1.3394     0.0094 N.am    
   2 C2             0.0021    -0.0041     0.0020 C.2     
   3 C3             1.4546    -0.4301    -0.0141 C.3     
   4 C4             2.2204     0.8728    -0.0144 C.ar    
   5 C5             3.5688     1.1684    -0.0257 C.ar    
   6 C6             3.9857     2.4974    -0.0226 C.ar    
   7 C7             3.0424     3.5121    -0.0081 C.ar    
   8 C8             1.6951     3.2124     0.0031 C.ar    
   9 C9             1.2701     1.8854     0.0001 C.ar    
  10 O10           -0.9638    -0.7377     0.0077 O.2     
  11 C11           -1.2432     2.1397     0.0198 C.3     
  12 O12           -2.4669     1.6334     2.1850 O.3     
  13 C13           -1.6567     2.4069     1.4441 C.2     
  14 C14           -1.2764     3.4603     2.1892 C.2     
  15 C15           -1.8937     3.3126     3.4525 C.2     
  16 C16           -2.6142     2.1778     3.4039 C.2     
  17 C17           -3.4457     1.6130     4.5267 C.3     
  18 F18           -4.7473     2.1192     4.4433 F       
  19 F19           -3.4804     0.2181     4.4253 F       
  20 F20           -2.8814     1.9774     5.7539 F       
  21 O21            5.3128     2.7977    -0.0332 O.3     
  22 C22            5.6645     4.1827    -0.0291 C.3     
  23 O23            4.4870     0.1654    -0.0394 O.3     
  24 C24            4.9130    -0.3068    -1.3191 C.3     
  25 O25            2.6845    -3.4255     4.6057 O.3     
  26 C26            2.8137    -4.8431     4.4528 C.3     
  27 C27            3.6845    -5.1158     3.2188 C.3     
  28 O28            3.0400    -4.5369     2.0789 O.3     
  29 C29            2.5678    -3.2673     2.2218 C.ar    
  30 C30            2.3886    -2.7134     3.4841 C.ar    
  31 C31            2.2649    -2.5240     1.0914 C.ar    
  32 C32            1.7824    -1.2348     1.2172 C.ar    
  33 C33            1.6003    -0.6812     2.4753 C.ar    
  34 C34            1.9034    -1.4206     3.6084 C.ar    
  35 O35            1.1248     0.5868     2.5978 O.3     
  36 O36            1.7431    -1.1806    -1.1955 O.3     
  37 H37            3.3630     4.5434    -0.0053 H       
  38 H38            0.9670     4.0100     0.0144 H       
  39 H39           -1.0640     3.0862    -0.4902 H       
  40 H40           -2.0363     1.5953    -0.4928 H       
  41 H41           -0.6242     4.2643     1.8816 H       
  42 H42           -1.8037     3.9823     4.2951 H       
  43 H43            6.7500     4.2819    -0.0385 H       
  44 H44            5.2478     4.6660    -0.9128 H       
  45 H45            5.2642     4.6567     0.8671 H       
  46 H46            5.6440    -1.1045    -1.1872 H       
  47 H47            4.0536    -0.6889    -1.8699 H       
  48 H48            5.3664     0.5130    -1.8764 H       
  49 H49            3.2878    -5.2667     5.3382 H       
  50 H50            1.8289    -5.2891     4.3135 H       
  51 H51            4.6668    -4.6634     3.3549 H       
  52 H52            3.7911    -6.1909     3.0743 H       
  53 H53            2.4057    -2.9533     0.1104 H       
  54 H54            1.7612    -0.9893     4.5883 H       
  55 H55            0.1609     0.6420     2.6507 H       
  56 H56            1.2337    -1.9986    -1.2760 H       
@<TRIPOS>BOND
   1    1    2 am
   2    1    9 1
   3    1   11 1
   4    2    3 1
   5    2   10 2
   6    3    4 1
   7    3   32 1
   8    3   36 1
   9    4    5 ar
  10    4    9 ar
  11    5    6 ar
  12    5   23 1
  13    6    7 ar
  14    6   21 1
  15    7    8 ar
  16    7   37 1
  17    8    9 ar
  18    8   38 1
  19   11   13 1
  20   11   39 1
  21   11   40 1
  22   12   13 1
  23   12   16 1
  24   13   14 2
  25   14   15 1
  26   14   41 1
  27   15   16 2
  28   15   42 1
  29   16   17 1
  30   17   18 1
  31   17   19 1
  32   17   20 1
  33   21   22 1
  34   22   43 1
  35   22   44 1
  36   22   45 1
  37   23   24 1
  38   24   46 1
  39   24   47 1
  40   24   48 1
  41   25   26 1
  42   25   30 1
  43   26   27 1
  44   26   49 1
  45   26   50 1
  46   27   28 1
  47   27   51 1
  48   27   52 1
  49   28   29 1
  50   29   30 ar
  51   29   31 ar
  52   30   34 ar
  53   31   32 ar
  54   31   53 1
  55   32   33 ar
  56   33   34 ar
  57   33   35 1
  58   34   54 1
  59   35   55 1
  60   36   56 1

#	End of record

