#	Name: ASD02508143
#	Creating user name:	WinNT
#	Creation time:	15. 06. 2019 20:23

#	Modifying user name:	WinNT
#	Modification time:	15. 06. 2019 20:23

#	Program:	/corina/corina34_cracker 3.40 0067  02.08.2006

@<TRIPOS>MOLECULE
ASD02508143
  33   35    0    0    0
SMALL
NO_CHARGES


@<TRIPOS>ATOM
   1 C1             0.4166     1.9111     0.0055 C.ar    
   2 C2             0.2431     0.5393     0.1029 C.ar    
   3 C3             1.6992     2.4464    -0.1099 C.ar    
   4 C4             2.7983     1.6021    -0.1273 C.ar    
   5 C5             2.6200     0.2360    -0.0304 C.ar    
   6 C6             1.3453    -0.2961     0.0852 C.ar    
   7 N7            -0.4682     2.9889    -0.0115 N.am    
   8 C8             0.2654     4.1137    -0.1258 C.2     
   9 O9             1.5675     3.7939    -0.1863 O.3     
  10 S10            4.0189    -0.8350    -0.0533 S.o2    
  11 N11            4.1156    -1.5470     1.4387 N.am    
  12 C12            4.3536    -0.7644     2.5727 C.ar    
  13 O13           -0.1832     5.2430    -0.1721 O.2     
  14 C14           -1.9284     2.9124     0.0784 C.3     
  15 O15            3.7143    -1.8733    -0.9744 O.2     
  16 O16            5.1620     0.0004    -0.1741 O.2     
  17 C17            3.5846    -0.9436     3.7152 C.ar    
  18 C18            5.3631     0.1893     2.5601 C.ar    
  19 C19            5.5967     0.9609     3.6816 C.ar    
  20 C20            4.8256     0.7839     4.8180 C.ar    
  21 C21            3.8218    -0.1697     4.8344 C.ar    
  22 F22            1.1791    -1.6335     0.1801 F       
  23 F23            5.0564     1.5391     5.9141 F       
  24 H24           -0.7499     0.1241     0.1927 H       
  25 H25            3.7934     2.0122    -0.2169 H       
  26 H26            4.0072    -2.5070     1.5260 H       
  27 H27           -2.2310     2.9586     1.1246 H       
  28 H28           -2.3702     3.7479    -0.4648 H       
  29 H29           -2.2707     1.9739    -0.3577 H       
  30 H30            2.8016    -1.6872     3.7284 H       
  31 H31            5.9652     0.3272     1.6742 H       
  32 H32            6.3816     1.7027     3.6723 H       
  33 H33            3.2216    -0.3061     5.7218 H       
@<TRIPOS>BOND
   1    1    2 ar
   2    1    3 ar
   3    1    7 1
   4    2    6 ar
   5    2   24 1
   6    3    4 ar
   7    3    9 1
   8    4    5 ar
   9    4   25 1
  10    5    6 ar
  11    5   10 1
  12    6   22 1
  13    7    8 am
  14    7   14 1
  15    8    9 1
  16    8   13 2
  17   10   11 am
  18   10   15 2
  19   10   16 2
  20   11   12 1
  21   11   26 1
  22   12   17 ar
  23   12   18 ar
  24   14   27 1
  25   14   28 1
  26   14   29 1
  27   17   21 ar
  28   17   30 1
  29   18   19 ar
  30   18   31 1
  31   19   20 ar
  32   19   32 1
  33   20   21 ar
  34   20   23 1
  35   21   33 1

#	End of record

