#	Name: ASD08150569
#	Creating user name:	WinNT
#	Creation time:	15. 06. 2019 21:16

#	Modifying user name:	WinNT
#	Modification time:	15. 06. 2019 21:16

#	Program:	/corina/corina34_cracker 3.40 0067  02.08.2006

@<TRIPOS>MOLECULE
ASD08150569
  49   54    0    0    0
SMALL
NO_CHARGES


@<TRIPOS>ATOM
   1 N1             0.4440     2.0638     1.7947 N.am    
   2 C2             0.6989     1.0915     2.6916 C.2     
   3 C3             1.9128     0.3756     2.6577 C.2     
   4 C4             2.8465     0.6586     1.7140 C.2     
   5 C5             2.5816     1.6807     0.7685 C.ar    
   6 C6             3.5158     2.0135    -0.2310 C.ar    
   7 N7             3.2687     2.9565    -1.1023 N.ar    
   8 C8             2.1238     3.6561    -1.0972 C.ar    
   9 C9             1.1266     3.3888    -0.1271 C.ar    
  10 C10            1.3633     2.3746     0.8303 C.ar    
  11 C11           -0.2528     5.1098    -1.0848 C.ar    
  12 C12            0.7380     5.3679    -2.0422 C.ar    
  13 C13            1.9001     4.6614    -2.0521 C.ar    
  14 O14           -0.1314     0.8273     3.5444 O.2     
  15 C15           -0.7718     2.7568     1.8462 C.ar    
  16 C16           -1.8930     2.2420     1.2090 C.ar    
  17 C17           -3.0912     2.9270     1.2610 C.ar    
  18 C18           -3.1748     4.1264     1.9479 C.ar    
  19 C19           -2.0576     4.6417     2.5842 C.ar    
  20 C20           -0.8593     3.9572     2.5395 C.ar    
  21 C21           -0.0626     4.1243    -0.1300 C.ar    
  22 C22           -1.5116     5.8948    -1.0950 C.ar    
  23 C23           -2.7242     5.2732    -0.7730 C.ar    
  24 F24           -4.3476     4.7952     1.9972 F       
  25 C25           -3.8908     5.9791    -0.7772 C.ar    
  26 C26           -3.8883     7.3340    -1.1034 C.ar    
  27 C27           -2.6749     7.9718    -1.4289 C.ar    
  28 C28           -1.4827     7.2428    -1.4178 C.ar    
  29 N29           -4.8700     8.2865    -1.1927 N.pl3   
  30 N30           -4.2935     9.5044    -1.5671 N.2     
  31 C31           -3.0074     9.3641    -1.7161 C.2     
  32 C32           -4.3082     2.3690     0.5693 C.3     
  33 F33           -3.9783     1.1594    -0.0513 F       
  34 F34           -5.3199     2.1496     1.5103 F       
  35 F35           -4.7562     3.2800    -0.3933 F       
  36 H36            2.1006    -0.4003     3.3850 H       
  37 H37            3.7781     0.1131     1.6843 H       
  38 H38            4.4538     1.4803    -0.2786 H       
  39 H39            0.5763     6.1379    -2.7821 H       
  40 H40            2.6532     4.8743    -2.7963 H       
  41 H41           -1.8281     1.3067     0.6729 H       
  42 H42           -2.1249     5.5773     3.1194 H       
  43 H43            0.0116     4.3593     3.0357 H       
  44 H44           -0.8271     3.9255     0.6065 H       
  45 H45           -2.7357     4.2236    -0.5189 H       
  46 H46           -4.8191     5.4869    -0.5274 H       
  47 H47           -0.5480     7.7235    -1.6660 H       
  48 H48           -5.8137     8.1392    -1.0235 H       
  49 H49           -2.3113    10.1391    -2.0008 H       
@<TRIPOS>BOND
   1    1    2 am
   2    1   10 1
   3    1   15 1
   4    2    3 1
   5    2   14 2
   6    3    4 2
   7    3   36 1
   8    4    5 1
   9    4   37 1
  10    5    6 ar
  11    5   10 ar
  12    6    7 ar
  13    6   38 1
  14    7    8 ar
  15    8    9 ar
  16    8   13 ar
  17    9   10 ar
  18    9   21 ar
  19   11   12 ar
  20   11   22 1
  21   11   21 ar
  22   12   13 ar
  23   12   39 1
  24   13   40 1
  25   15   16 ar
  26   15   20 ar
  27   16   17 ar
  28   16   41 1
  29   17   18 ar
  30   17   32 1
  31   18   19 ar
  32   18   24 1
  33   19   20 ar
  34   19   42 1
  35   20   43 1
  36   21   44 1
  37   22   23 ar
  38   22   28 ar
  39   23   25 ar
  40   23   45 1
  41   25   26 ar
  42   25   46 1
  43   26   27 ar
  44   26   29 1
  45   27   28 ar
  46   27   31 1
  47   28   47 1
  48   29   30 1
  49   29   48 1
  50   30   31 2
  51   31   49 1
  52   32   33 1
  53   32   34 1
  54   32   35 1

#	End of record

