#	Name: ASD03240684
#	Creating user name:	WinNT
#	Creation time:	15. 06. 2019 20:35

#	Modifying user name:	WinNT
#	Modification time:	15. 06. 2019 20:35

#	Program:	/corina/corina34_cracker 3.40 0067  02.08.2006

@<TRIPOS>MOLECULE
ASD03240684
  55   60    0    0    0
SMALL
NO_CHARGES


@<TRIPOS>ATOM
   1 C1            -0.0188     1.5342     0.0105 C.3     
   2 C2             0.0021    -0.0041     0.0020 C.3     
   3 C3             1.3807     0.0970     0.6240 C.2     
   4 C4             1.5182     1.4694    -0.0045 C.3     
   5 N5            -0.5959     2.1226    -1.2055 N.3     
   6 C6            -0.5869     2.1243     1.2754 C.ar    
   7 C7            -1.2386     3.3440     1.2344 C.ar    
   8 C8            -1.7613     3.8893     2.3891 C.ar    
   9 C9            -1.6315     3.2082     3.5994 C.ar    
  10 C10           -0.9733     1.9788     3.6343 C.ar    
  11 C11           -0.4595     1.4414     2.4719 C.ar    
  12 C12           -3.1429     7.5925     7.4197 C.2     
  13 N13           -3.6776     6.8433     8.4003 N.2     
  14 C14           -3.7409     5.5392     8.3209 C.2     
  15 C15           -3.2158     4.8739     7.1304 C.ar    
  16 C16           -2.6556     5.6657     6.1051 C.ar    
  17 N17           -2.6322     7.0362     6.2783 N.pl3   
  18 C18           -3.2553     3.4832     6.9872 C.ar    
  19 C19           -2.7322     2.9332     5.8212 C.ar    
  20 C20           -2.1897     3.7881     4.8424 C.ar    
  21 N21           -2.1700     5.1016     5.0132 N.ar    
  22 N22           -2.1577     8.0760     5.4694 N.2     
  23 C23           -2.3657     9.2167     6.0821 C.2     
  24 C24           -2.9739     8.9657     7.3056 C.2     
  25 C25           -2.7452     1.4655     5.6120 C.ar    
  26 C26           -2.2645     0.6130     6.6047 C.ar    
  27 C27           -2.2795    -0.7524     6.4046 C.ar    
  28 C28           -2.7700    -1.2754     5.2216 C.ar    
  29 C29           -3.2479    -0.4343     4.2328 C.ar    
  30 C30           -3.2435     0.9324     4.4243 C.ar    
  31 C31           -1.9996    10.5775     5.5482 C.3     
  32 C32            2.1291    -0.6697     1.3777 C.2     
  33 H33           -0.7420    -0.4554     0.6583 H       
  34 H34            0.0042    -0.4361    -0.9987 H       
  35 H35            1.9455     1.4507    -1.0071 H       
  36 H36            1.9934     2.2032     0.6465 H       
  37 H37           -0.5898     3.1304    -1.1576 H       
  38 H38           -0.1128     1.7968    -2.0293 H       
  39 H39           -1.3382     3.8705     0.2967 H       
  40 H40           -2.2695     4.8416     2.3559 H       
  41 H41           -0.8693     1.4469     4.5684 H       
  42 H42            0.0467     0.4878     2.4968 H       
  43 H43           -4.1754     4.9622     9.1238 H       
  44 H44           -3.6782     2.8558     7.7579 H       
  45 H45           -3.2646     9.7061     8.0361 H       
  46 H46           -1.8807     1.0202     7.5284 H       
  47 H47           -1.9073    -1.4138     7.1729 H       
  48 H48           -2.7795    -2.3445     5.0692 H       
  49 H49           -3.6293    -0.8481     3.3111 H       
  50 H50           -3.6211     1.5880     3.6535 H       
  51 H51           -2.8336    10.9782     4.9720 H       
  52 H52           -1.7779    11.2465     6.3798 H       
  53 H53           -1.1225    10.4923     4.9067 H       
  54 H54            1.7670    -1.6377     1.6911 H       
  55 H55            3.1082    -0.3338     1.6857 H       
@<TRIPOS>BOND
   1    1    2 1
   2    1    4 1
   3    1    5 1
   4    1    6 1
   5    2    3 1
   6    2   33 1
   7    2   34 1
   8    3    4 1
   9    3   32 2
  10    4   35 1
  11    4   36 1
  12    5   37 1
  13    5   38 1
  14    6    7 ar
  15    6   11 ar
  16    7    8 ar
  17    7   39 1
  18    8    9 ar
  19    8   40 1
  20    9   10 ar
  21    9   20 1
  22   10   11 ar
  23   10   41 1
  24   11   42 1
  25   12   13 1
  26   12   17 1
  27   12   24 2
  28   13   14 2
  29   14   15 1
  30   14   43 1
  31   15   16 ar
  32   15   18 ar
  33   16   17 1
  34   16   21 ar
  35   17   22 1
  36   18   19 ar
  37   18   44 1
  38   19   20 ar
  39   19   25 1
  40   20   21 ar
  41   22   23 2
  42   23   24 1
  43   23   31 1
  44   24   45 1
  45   25   26 ar
  46   25   30 ar
  47   26   27 ar
  48   26   46 1
  49   27   28 ar
  50   27   47 1
  51   28   29 ar
  52   28   48 1
  53   29   30 ar
  54   29   49 1
  55   30   50 1
  56   31   51 1
  57   31   52 1
  58   31   53 1
  59   32   54 1
  60   32   55 1

#	End of record

