#	Name: ASD05430550
#	Creating user name:	WinNT
#	Creation time:	15. 06. 2019 21:00

#	Modifying user name:	WinNT
#	Modification time:	15. 06. 2019 21:00

#	Program:	/corina/corina34_cracker 3.40 0067  02.08.2006

@<TRIPOS>MOLECULE
ASD05430550
  46   45    0    0    0
SMALL
NO_CHARGES


@<TRIPOS>ATOM
   1 C1            -0.0167     1.3775     0.0096 C.ar    
   2 C2             0.0021    -0.0041     0.0020 C.ar    
   3 C3             1.1833     2.0739     0.0019 C.ar    
   4 C4             2.3671     1.3538    -0.0135 C.ar    
   5 C5             2.3111    -0.0273    -0.0206 C.ar    
   6 N6             1.1536    -0.6553    -0.0129 N.ar    
   7 C7            -1.4179    -0.5313     0.0137 C.3     
   8 C8            -2.2972     0.6637    -0.4115 C.3     
   9 C9            -1.4449     1.8742     0.0198 C.3     
  10 H10            1.1944     3.1539     0.0074 H       
  11 H11            3.3190     1.8639    -0.0202 H       
  12 H12            3.2277    -0.5983    -0.0330 H       
  13 H13           -1.5231    -1.3502    -0.6980 H       
  14 H14           -1.6898    -0.8630     1.0158 H       
  15 H15           -2.4503     0.6674    -1.4907 H       
  16 H16           -3.2508     0.6503     0.1162 H       
  17 H17           -1.7215     2.1928     1.0249 H       
  18 H18           -1.5695     2.6954    -0.6860 H       
  19 C19            9.3209    11.2804     8.1751 C.3     
  20 C20            9.3416     9.7506     8.1667 C.3     
  21 C21           10.0578     9.2572     6.9079 C.3     
  22 C22           10.0816     9.2438     9.4063 C.3     
  23 H23           10.3435    11.6577     8.1674 H       
  24 H24            8.7937    11.6415     7.2921 H       
  25 H25            8.8107    11.6319     9.0719 H       
  26 H26            8.3190     9.3733     8.1745 H       
  27 H27           11.0804     9.6345     6.9002 H       
  28 H28           10.0726     8.1673     6.9019 H       
  29 H29            9.5306     9.6182     6.0249 H       
  30 H30            9.5714     9.5953    10.3030 H       
  31 H31           10.0964     8.1539     9.4003 H       
  32 H32           11.1042     9.6210     9.3985 H       
  33 C33           17.1061    19.7843    17.4533 C.3     
  34 C34           17.1268    18.2544    17.4449 C.3     
  35 C35           17.8429    17.7610    16.1861 C.3     
  36 C36           17.8668    17.7476    18.6844 C.3     
  37 H37           18.1287    20.1615    17.4456 H       
  38 H38           16.5789    20.1453    16.5703 H       
  39 H39           16.5959    20.1358    18.3501 H       
  40 H40           16.1042    17.8771    17.4526 H       
  41 H41           18.8655    18.1383    16.1784 H       
  42 H42           17.8577    16.6711    16.1801 H       
  43 H43           17.3158    18.1221    15.3030 H       
  44 H44           17.3566    18.0991    19.5812 H       
  45 H45           17.8816    16.6577    18.6784 H       
  46 H46           18.8894    18.1249    18.6767 H       
@<TRIPOS>BOND
   1    1    2 ar
   2    1    3 ar
   3    1    9 1
   4    2    7 1
   5    2    6 ar
   6    3    4 ar
   7    3   10 1
   8    4    5 ar
   9    4   11 1
  10    5    6 ar
  11    5   12 1
  12    7    8 1
  13    7   13 1
  14    7   14 1
  15    8    9 1
  16    8   15 1
  17    8   16 1
  18    9   17 1
  19    9   18 1
  20   19   20 1
  21   19   23 1
  22   19   24 1
  23   19   25 1
  24   20   21 1
  25   20   22 1
  26   20   26 1
  27   21   27 1
  28   21   28 1
  29   21   29 1
  30   22   30 1
  31   22   31 1
  32   22   32 1
  33   33   34 1
  34   33   37 1
  35   33   38 1
  36   33   39 1
  37   34   35 1
  38   34   36 1
  39   34   40 1
  40   35   41 1
  41   35   42 1
  42   35   43 1
  43   36   44 1
  44   36   45 1
  45   36   46 1

#	End of record

