#	Name: ASD01350018
#	Creating user name:	WinNT
#	Creation time:	15. 06. 2019 19:16

#	Modifying user name:	WinNT
#	Modification time:	15. 06. 2019 19:16

#	Program:	/corina/corina34_cracker 3.40 0067  02.08.2006

@<TRIPOS>MOLECULE
ASD01350018
  51   54    0    0    0
SMALL
NO_CHARGES


@<TRIPOS>ATOM
   1 C1            -0.0184     1.5028     0.0103 C.2     
   2 C2             0.0021    -0.0041     0.0020 C.3     
   3 C3             0.0228    -0.5218     1.4416 C.3     
   4 N4             0.0427    -1.9906     1.4335 N.3     
   5 C5             0.0629    -2.5244     2.8020 C.3     
   6 C6            -1.3680    -2.6121     3.3364 C.3     
   7 C7             0.6916    -3.9192     2.7961 C.3     
   8 C8             2.1383    -3.8165     2.3868 C.ar    
   9 C9             3.1164    -3.6324     3.3463 C.ar    
  10 C10            4.4434    -3.5381     2.9715 C.ar    
  11 C11            4.7928    -3.6280     1.6359 C.ar    
  12 C12            3.8135    -3.8123     0.6761 C.ar    
  13 C13            2.4873    -3.9121     1.0526 C.ar    
  14 C14           -1.2211     2.1142    -0.0261 C.2     
  15 C15           -1.3287     3.6151    -0.0233 C.3     
  16 S16           -0.0417     4.2801    -1.1278 S.3     
  17 C17            1.3952     3.5126    -0.4403 C.ar    
  18 C18            1.2646     2.1990     0.0632 C.ar    
  19 C19            2.6067     4.1706    -0.3895 C.ar    
  20 C20            3.7089     3.5344     0.1549 C.ar    
  21 C21            3.5966     2.2434     0.6452 C.ar    
  22 C22            2.3934     1.5751     0.6079 C.ar    
  23 C23           -2.3855     1.3112    -0.0669 C.2     
  24 C24           -3.5925     1.8496    -0.3373 C.2     
  25 C25           -3.7174     3.2813    -0.5982 C.2     
  26 C26           -2.6763     4.0917    -0.4553 C.2     
  27 Cl27           6.4593    -3.5091     1.1643 Cl      
  28 H28           -0.8878    -0.3767    -0.5053 H       
  29 H29            0.8920    -0.3525    -0.5222 H       
  30 H30            0.9126    -0.1491     1.9490 H       
  31 H31           -0.8671    -0.1733     1.9659 H       
  32 H32           -0.7387    -2.3600     0.9129 H       
  33 H33            0.6495    -1.8641     3.4409 H       
  34 H34           -1.3530    -3.0081     4.3518 H       
  35 H35           -1.8159    -1.6184     3.3406 H       
  36 H36           -1.9546    -3.2723     2.6975 H       
  37 H37            0.6263    -4.3514     3.7947 H       
  38 H38            0.1583    -4.5551     2.0894 H       
  39 H39            2.8435    -3.5618     4.3888 H       
  40 H40            5.2074    -3.3938     3.7211 H       
  41 H41            4.0856    -3.8826    -0.3667 H       
  42 H42            1.7228    -4.0559     0.3035 H       
  43 H43           -1.1463     3.9789     0.9879 H       
  44 H44            2.6948     5.1765    -0.7727 H       
  45 H45            4.6593     4.0457     0.1973 H       
  46 H46            4.4632     1.7556     1.0664 H       
  47 H47            2.3219     0.5689     0.9936 H       
  48 H48           -2.3066     0.2507     0.1212 H       
  49 H49           -4.4695     1.2197    -0.3612 H       
  50 H50           -4.6689     3.6854    -0.9110 H       
  51 H51           -2.8094     5.1434    -0.6619 H       
@<TRIPOS>BOND
   1    1    2 1
   2    1   14 2
   3    1   18 1
   4    2    3 1
   5    2   28 1
   6    2   29 1
   7    3    4 1
   8    3   30 1
   9    3   31 1
  10    4    5 1
  11    4   32 1
  12    5    6 1
  13    5    7 1
  14    5   33 1
  15    6   34 1
  16    6   35 1
  17    6   36 1
  18    7    8 1
  19    7   37 1
  20    7   38 1
  21    8    9 ar
  22    8   13 ar
  23    9   10 ar
  24    9   39 1
  25   10   11 ar
  26   10   40 1
  27   11   12 ar
  28   11   27 1
  29   12   13 ar
  30   12   41 1
  31   13   42 1
  32   14   15 1
  33   14   23 1
  34   15   16 1
  35   15   26 1
  36   15   43 1
  37   16   17 1
  38   17   18 ar
  39   17   19 ar
  40   18   22 ar
  41   19   20 ar
  42   19   44 1
  43   20   21 ar
  44   20   45 1
  45   21   22 ar
  46   21   46 1
  47   22   47 1
  48   23   24 2
  49   23   48 1
  50   24   25 1
  51   24   49 1
  52   25   26 2
  53   25   50 1
  54   26   51 1

#	End of record

