#	Name: ASD00111006
#	Creating user name:	WinNT
#	Creation time:	15. 06. 2019 18:30

#	Modifying user name:	WinNT
#	Modification time:	15. 06. 2019 18:30

#	Program:	/corina/corina34_cracker 3.40 0067  02.08.2006

@<TRIPOS>MOLECULE
ASD00111006
  41   43    0    0    0
SMALL
NO_CHARGES


@<TRIPOS>ATOM
   1 C1            -0.0167     1.3837     0.0096 C.ar    
   2 C2             0.0021    -0.0041     0.0020 C.ar    
   3 C3            -1.1911    -0.7134     0.0091 C.ar    
   4 C4            -2.3915    -0.0292     0.0236 C.ar    
   5 C5            -2.4080     1.3446     0.0320 C.ar    
   6 C6            -1.2239     2.0589     0.0306 C.ar    
   7 C7            -3.6958    -0.7995     0.0298 C.3     
   8 C8            -4.3580    -0.6130     1.3986 C.3     
   9 N9            -5.1353     0.6150     1.4345 N.3     
  10 C10           -4.3875     1.8615     1.4148 C.3     
  11 C11           -3.7310     2.0824     0.0489 C.3     
  12 Br12           1.6078     2.3514    -0.0007 Br      
  13 O13            1.1879    -0.6681    -0.0128 O.3     
  14 C14           -3.4907     3.5772    -0.1721 C.3     
  15 C15            1.1319    -2.0960    -0.0199 C.3     
  16 C16            2.5318    -2.6535    -0.0362 C.ar    
  17 C17            3.1853    -2.9157     1.1534 C.ar    
  18 C18            4.4694    -3.4271     1.1385 C.ar    
  19 C19            5.1000    -3.6768    -0.0660 C.ar    
  20 C20            4.4462    -3.4155    -1.2557 C.ar    
  21 C21            3.1605    -2.9081    -1.2407 C.ar    
  22 H22           -1.1813    -1.7933     0.0029 H       
  23 H23           -1.2416     3.1387     0.0367 H       
  24 H24           -4.3525    -0.4163    -0.7512 H       
  25 H25           -3.4984    -1.8576    -0.1418 H       
  26 H26           -5.0155    -1.4594     1.5970 H       
  27 H27           -3.5864    -0.5715     2.1674 H       
  28 H28           -5.8505     0.6111     0.7228 H       
  29 H29           -5.0648     2.6892     1.6251 H       
  30 H30           -3.6146     1.8279     2.1827 H       
  31 H31           -4.3784     1.6937    -0.7371 H       
  32 H32           -2.8348     3.9593     0.6101 H       
  33 H33           -3.0235     3.7302    -1.1449 H       
  34 H34           -4.4427     4.1070    -0.1389 H       
  35 H35            0.6127    -2.4437     0.8732 H       
  36 H36            0.5958    -2.4341    -0.9067 H       
  37 H37            2.6926    -2.7206     2.0945 H       
  38 H38            4.9802    -3.6313     2.0679 H       
  39 H39            6.1036    -4.0757    -0.0777 H       
  40 H40            4.9390    -3.6103    -2.1967 H       
  41 H41            2.6497    -2.7040    -2.1702 H       
@<TRIPOS>BOND
   1    1    2 ar
   2    1   12 1
   3    1    6 ar
   4    2    3 ar
   5    2   13 1
   6    3    4 ar
   7    3   22 1
   8    4    5 ar
   9    4    7 1
  10    5    6 ar
  11    5   11 1
  12    6   23 1
  13    7    8 1
  14    7   24 1
  15    7   25 1
  16    8    9 1
  17    8   26 1
  18    8   27 1
  19    9   10 1
  20    9   28 1
  21   10   11 1
  22   10   29 1
  23   10   30 1
  24   11   14 1
  25   11   31 1
  26   13   15 1
  27   14   32 1
  28   14   33 1
  29   14   34 1
  30   15   16 1
  31   15   35 1
  32   15   36 1
  33   16   17 ar
  34   16   21 ar
  35   17   18 ar
  36   17   37 1
  37   18   19 ar
  38   18   38 1
  39   19   20 ar
  40   19   39 1
  41   20   21 ar
  42   20   40 1
  43   21   41 1

#	End of record

