#	Name: ASD01148108
#	Creating user name:	WinNT
#	Creation time:	15. 06. 2019 19:02

#	Modifying user name:	WinNT
#	Modification time:	15. 06. 2019 19:02

#	Program:	/corina/corina34_cracker 3.40 0067  02.08.2006

@<TRIPOS>MOLECULE
ASD01148108
  45   46    0    0    0
SMALL
NO_CHARGES


@<TRIPOS>ATOM
   1 C1            -0.0166     1.3749     0.0096 C.ar    
   2 C2             0.0021    -0.0041     0.0020 C.ar    
   3 C3             1.1752     2.0867     0.0020 C.ar    
   4 C4             2.3891     1.4133    -0.0137 C.ar    
   5 C5             2.4142     0.0344    -0.0218 C.ar    
   6 C6             1.2193    -0.6830    -0.0133 C.ar    
   7 C7             1.2428    -2.1663    -0.0215 C.ar    
   8 C8             0.0479    -2.8838    -0.0130 C.ar    
   9 C9            -1.3322     2.1098     0.0198 C.3     
  10 C10           -2.1351     1.7357    -1.2277 C.3     
  11 C11           -2.1233     1.7221     1.2707 C.3     
  12 C12            3.6806     2.1898    -0.0223 C.3     
  13 C13            4.5017     1.8277     1.2169 C.3     
  14 C14            4.4768     1.8412    -1.2815 C.3     
  15 O15            1.1536     3.4454     0.0096 O.3     
  16 C16            2.4599    -2.8453    -0.0436 C.ar    
  17 C17            2.4787    -4.2243    -0.0511 C.ar    
  18 C18            0.0731    -4.2627    -0.0207 C.ar    
  19 C19            1.2869    -4.9361    -0.0368 C.ar    
  20 O20            1.3085    -6.2948    -0.0448 O.3     
  21 C21            0.0459    -6.9638    -0.0291 C.3     
  22 F22           -0.6923    -6.5930    -1.1582 F       
  23 F23            0.2512    -8.3476    -0.0401 F       
  24 F24           -0.6573    -6.6058     1.1261 F       
  25 H25           -0.9254    -0.5573     0.0083 H       
  26 H26            3.3589    -0.4889    -0.0348 H       
  27 H27           -0.8968    -2.3605    -0.0001 H       
  28 H28           -1.1483     3.1842     0.0248 H       
  29 H29           -2.3191     0.6613    -1.2326 H       
  30 H30           -3.0867     2.2672    -1.2203 H       
  31 H31           -1.5716     2.0119    -2.1188 H       
  32 H32           -1.5513     1.9887     2.1595 H       
  33 H33           -3.0749     2.2537     1.2781 H       
  34 H34           -2.3073     0.6478     1.2658 H       
  35 H35            3.4625     3.2577    -0.0144 H       
  36 H36            4.7197     0.7598     1.2089 H       
  37 H37            5.4358     2.3893     1.2106 H       
  38 H38            3.9344     2.0761     2.1139 H       
  39 H39            3.8919     2.0992    -2.1643 H       
  40 H40            5.4110     2.4028    -1.2877 H       
  41 H41            4.6949     0.7733    -1.2894 H       
  42 H42            1.1558     3.8339     0.8951 H       
  43 H43            3.3874    -2.2920    -0.0551 H       
  44 H44            3.4214    -4.7509    -0.0686 H       
  45 H45           -0.8525    -4.8192    -0.0141 H       
@<TRIPOS>BOND
   1    1    2 ar
   2    1    3 ar
   3    1    9 1
   4    2    6 ar
   5    2   25 1
   6    3    4 ar
   7    3   15 1
   8    4    5 ar
   9    4   12 1
  10    5    6 ar
  11    5   26 1
  12    6    7 1
  13    7    8 ar
  14    7   16 ar
  15    8   18 ar
  16    8   27 1
  17    9   10 1
  18    9   11 1
  19    9   28 1
  20   10   29 1
  21   10   30 1
  22   10   31 1
  23   11   32 1
  24   11   33 1
  25   11   34 1
  26   12   13 1
  27   12   14 1
  28   12   35 1
  29   13   36 1
  30   13   37 1
  31   13   38 1
  32   14   39 1
  33   14   40 1
  34   14   41 1
  35   15   42 1
  36   16   17 ar
  37   16   43 1
  38   17   19 ar
  39   17   44 1
  40   18   19 ar
  41   18   45 1
  42   19   20 1
  43   20   21 1
  44   21   22 1
  45   21   23 1
  46   21   24 1

#	End of record

