#	Name: ASD01411089
#	Creating user name:	WinNT
#	Creation time:	15. 06. 2019 19:19

#	Modifying user name:	WinNT
#	Modification time:	15. 06. 2019 19:19

#	Program:	/corina/corina34_cracker 3.40 0067  02.08.2006

@<TRIPOS>MOLECULE
ASD01411089
  46   49    0    0    0
SMALL
NO_CHARGES


@<TRIPOS>ATOM
   1 C1            -0.1733     1.5919     0.0206 C.2     
   2 C2            -0.2785     0.1512     0.0550 C.ar    
   3 C3             1.1451     1.8973     0.0322 C.2     
   4 C4            -1.2611     2.6358    -0.0158 C.3     
   5 C5             1.0541    -0.3362     0.0870 C.ar    
   6 C6            -1.3705    -0.7241     0.0602 C.ar    
   7 C7             1.6531     3.3196     0.0023 C.3     
   8 N8             1.8856     0.7485     0.0727 N.pl3   
   9 C9            -0.6304     3.9866     0.3521 C.3     
  10 C10            1.3105    -1.7057     0.1243 C.ar    
  11 C11           -1.0860    -2.0780     0.0975 C.ar    
  12 Cl12          -3.0046    -0.1392     0.0221 Cl      
  13 O13            0.5729     4.1718    -0.3986 O.3     
  14 C14            2.1396     3.7235     1.3955 C.3     
  15 C15            2.8032     3.4361    -1.0000 C.3     
  16 C16            0.2146    -2.5529     0.1284 C.ar    
  17 Cl17           2.9326    -2.3229     0.1631 Cl      
  18 C18            2.3143     3.0517    -2.3726 C.2     
  19 H19            2.8546     0.7092     0.0886 H       
  20 O20            1.1639     2.7187    -2.5328 O.2     
  21 O21            3.1567     3.0792    -3.4172 O.3     
  22 H22            2.7972     2.8242    -4.2780 H       
  23 C23            3.2782     2.7969     1.8266 C.3     
  24 C24            3.7647     3.2007     3.2199 C.3     
  25 C25            4.2679     4.6452     3.1855 C.3     
  26 C26            3.1294     5.5718     2.7544 C.3     
  27 C27            2.6429     5.1680     1.3611 C.3     
  28 H28           -1.6883     2.6887    -1.0173 H       
  29 H29           -2.0389     2.3833     0.7048 H       
  30 H30           -1.3308     4.7894     0.1219 H       
  31 H31           -0.3982     4.0012     1.4170 H       
  32 H32           -1.9024    -2.7851     0.1030 H       
  33 H33            1.3165     3.6423     2.1055 H       
  34 H34            3.1665     4.4637    -1.0183 H       
  35 H35            3.6130     2.7697    -0.7029 H       
  36 H36            0.3800    -3.6197     0.1569 H       
  37 H37            2.9196     1.7678     1.8511 H       
  38 H38            4.1013     2.8780     1.1167 H       
  39 H39            2.9416     3.1196     3.9298 H       
  40 H40            4.5758     2.5406     3.5270 H       
  41 H41            4.6145     4.9329     4.1780 H       
  42 H42            5.0910     4.7263     2.4755 H       
  43 H43            2.3063     5.4907     3.4643 H       
  44 H44            3.4879     6.6009     2.7299 H       
  45 H45            3.4660     5.2491     0.6512 H       
  46 H46            1.8317     5.8281     1.0540 H       
@<TRIPOS>BOND
   1    1    2 1
   2    1    3 2
   3    1    4 1
   4    2    5 ar
   5    2    6 ar
   6    3    7 1
   7    3    8 1
   8    4    9 1
   9    4   28 1
  10    4   29 1
  11    5   10 ar
  12    5    8 1
  13    6   11 ar
  14    6   12 1
  15    7   14 1
  16    7   15 1
  17    7   13 1
  18    8   19 1
  19    9   13 1
  20    9   30 1
  21    9   31 1
  22   10   16 ar
  23   10   17 1
  24   11   16 ar
  25   11   32 1
  26   14   23 1
  27   14   27 1
  28   14   33 1
  29   15   18 1
  30   15   34 1
  31   15   35 1
  32   16   36 1
  33   18   20 2
  34   18   21 1
  35   21   22 1
  36   23   24 1
  37   23   37 1
  38   23   38 1
  39   24   25 1
  40   24   39 1
  41   24   40 1
  42   25   26 1
  43   25   41 1
  44   25   42 1
  45   26   27 1
  46   26   43 1
  47   26   44 1
  48   27   45 1
  49   27   46 1

#	End of record

