#	Name: ASD00170187
#	Creating user name:	WinNT
#	Creation time:	15. 06. 2019 18:31

#	Modifying user name:	WinNT
#	Modification time:	15. 06. 2019 18:31

#	Program:	/corina/corina34_cracker 3.40 0067  02.08.2006

@<TRIPOS>MOLECULE
ASD00170187
  39   42    0    0    0
SMALL
NO_CHARGES


@<TRIPOS>ATOM
   1 C1            -0.0547     1.3515    -0.0691 C.2     
   2 C2            -0.0206     0.0153    -0.0906 C.2     
   3 C3            -1.3436    -0.5750     0.0190 C.2     
   4 C4            -2.3451     0.3566     0.1214 C.2     
   5 S5            -1.7048     1.9335     0.0788 S.3     
   6 C6             1.1714     2.2394    -0.1664 C.3     
   7 C7             2.4148     1.3962     0.1282 C.3     
   8 C8             2.3733     0.1284    -0.7302 C.3     
   9 C9             1.2628    -0.7903    -0.2156 C.3     
  10 N10           -3.6873     0.0571     0.2369 N.pl3   
  11 C11           -1.5836    -2.0179     0.0201 C.2     
  12 C12           -1.5915    -2.7651     1.2960 C.ar    
  13 O13           -1.7768    -2.6039    -1.0298 O.2     
  14 C14           -1.2508    -2.1079     2.4915 C.ar    
  15 C15           -1.2503    -2.7723     3.6753 C.ar    
  16 C16           -1.5938    -4.1358     3.7173 C.ar    
  17 C17           -1.9398    -4.8099     2.5183 C.ar    
  18 C18           -1.9398    -4.1058     1.3052 C.ar    
  19 C19           -1.5998    -4.8445     4.9302 C.ar    
  20 C20           -1.9363    -6.1637     4.9395 C.ar    
  21 C21           -2.2760    -6.8265     3.7615 C.ar    
  22 C22           -2.2819    -6.1734     2.5676 C.ar    
  23 H23            1.2420     2.6561    -1.1711 H       
  24 H24            1.0965     3.0469     0.5619 H       
  25 H25            3.3098     1.9700    -0.1120 H       
  26 H26            2.4279     1.1220     1.1831 H       
  27 H27            2.1724     0.3971    -1.7673 H       
  28 H28            3.3316    -0.3870    -0.6655 H       
  29 H29            1.5409    -1.1884     0.7602 H       
  30 H30            1.1125    -1.6104    -0.9177 H       
  31 H31           -3.9862    -0.8634     0.1718 H       
  32 H32           -4.3318     0.7671     0.3831 H       
  33 H33           -0.9859    -1.0612     2.4675 H       
  34 H34           -0.9856    -2.2540     4.5851 H       
  35 H35           -2.2013    -4.6068     0.3849 H       
  36 H36           -1.3383    -4.3451     5.8514 H       
  37 H37           -1.9397    -6.7050     5.8741 H       
  38 H38           -2.5387    -7.8734     3.7967 H       
  39 H39           -2.5475    -6.6994     1.6625 H       
@<TRIPOS>BOND
   1    1    2 2
   2    1    6 1
   3    1    5 1
   4    2    3 1
   5    2    9 1
   6    3    4 2
   7    3   11 1
   8    4    5 1
   9    4   10 1
  10    6    7 1
  11    6   23 1
  12    6   24 1
  13    7    8 1
  14    7   25 1
  15    7   26 1
  16    8    9 1
  17    8   27 1
  18    8   28 1
  19    9   29 1
  20    9   30 1
  21   10   31 1
  22   10   32 1
  23   11   12 1
  24   11   13 2
  25   12   14 ar
  26   12   18 ar
  27   14   15 ar
  28   14   33 1
  29   15   16 ar
  30   15   34 1
  31   16   17 ar
  32   16   19 ar
  33   17   18 ar
  34   17   22 ar
  35   18   35 1
  36   19   20 ar
  37   19   36 1
  38   20   21 ar
  39   20   37 1
  40   21   22 ar
  41   21   38 1
  42   22   39 1

#	End of record

