#	Name: ASD01884587
#	Creating user name:	WinNT
#	Creation time:	15. 06. 2019 19:48

#	Modifying user name:	WinNT
#	Modification time:	15. 06. 2019 19:48

#	Program:	/corina/corina34_cracker 3.40 0067  02.08.2006

@<TRIPOS>MOLECULE
ASD01884587
  44   45    0    0    0
SMALL
NO_CHARGES


@<TRIPOS>ATOM
   1 C1            -0.0164     1.3598     0.0095 C.2     
   2 C2             0.0021    -0.0041     0.0020 C.2     
   3 C3             1.2342    -0.6727    -0.0133 C.2     
   4 C4             2.3874     0.0358    -0.0205 C.2     
   5 N5             2.3670     1.3933    -0.0126 N.am    
   6 C6             1.1996     2.0643     0.0017 C.2     
   7 O7             1.1975     3.2849     0.0083 O.2     
   8 C8             3.6294     2.1366    -0.0197 C.3     
   9 C9             1.2747    -2.1791    -0.0213 C.3     
  10 C10            1.1781    -2.6917     1.3925 C.ar    
  11 C11           -0.0601    -2.9580     1.9471 C.ar    
  12 C12           -0.1513    -3.4280     3.2429 C.ar    
  13 C13            1.0009    -3.6327     3.9880 C.ar    
  14 C14            2.2422    -3.3647     3.4293 C.ar    
  15 C15            2.3283    -2.9003     2.1311 C.ar    
  16 O16            0.9139    -4.0945     5.2631 O.3     
  17 C17            2.1413    -4.2817     5.9706 C.3     
  18 C18            3.6918     3.0240    -1.2645 C.3     
  19 C19            3.7327     2.1448    -2.5160 C.3     
  20 C20            3.7950     3.0322    -3.7608 C.3     
  21 H21            2.9135     3.6724    -3.7952 H       
  22 C22            3.7142     3.0097     1.2338 C.3     
  23 H23           -0.9557     1.8927     0.0169 H       
  24 H24           -0.9222    -0.5627     0.0082 H       
  25 H25            3.3339    -0.4842    -0.0324 H       
  26 H26            4.4639     1.4354    -0.0312 H       
  27 H27            0.4372    -2.5620    -0.6046 H       
  28 H28            2.2112    -2.5151    -0.4665 H       
  29 H29           -0.9569    -2.7982     1.3668 H       
  30 H30           -1.1188    -3.6355     3.6757 H       
  31 H31            3.1406    -3.5233     4.0072 H       
  32 H32            3.2943    -2.6915     1.6957 H       
  33 H33            1.9297    -4.6527     6.9734 H       
  34 H34            2.7605    -5.0043     5.4390 H       
  35 H35            2.6699    -3.3309     6.0389 H       
  36 H36            2.8103     3.6642    -1.2989 H       
  37 H37            4.5886     3.6423    -1.2254 H       
  38 H38            4.6142     1.5046    -2.4817 H       
  39 H39            2.8359     1.5265    -2.5552 H       
  40 H40            4.6919     3.6505    -3.7217 H       
  41 H41            3.8242     2.4059    -4.6525 H       
  42 H42            3.6698     2.3775     2.1207 H       
  43 H43            4.6535     3.5627     1.2286 H       
  44 H44            2.8798     3.7109     1.2453 H       
@<TRIPOS>BOND
   1    1    2 2
   2    1    6 1
   3    1   23 1
   4    2    3 1
   5    2   24 1
   6    3    4 2
   7    3    9 1
   8    4    5 1
   9    4   25 1
  10    5    6 am
  11    5    8 1
  12    6    7 2
  13    8   18 1
  14    8   22 1
  15    8   26 1
  16    9   10 1
  17    9   27 1
  18    9   28 1
  19   10   11 ar
  20   10   15 ar
  21   11   12 ar
  22   11   29 1
  23   12   13 ar
  24   12   30 1
  25   13   14 ar
  26   13   16 1
  27   14   15 ar
  28   14   31 1
  29   15   32 1
  30   16   17 1
  31   17   33 1
  32   17   34 1
  33   17   35 1
  34   18   19 1
  35   18   36 1
  36   18   37 1
  37   19   20 1
  38   19   38 1
  39   19   39 1
  40   20   21 1
  41   20   40 1
  42   20   41 1
  43   22   42 1
  44   22   43 1
  45   22   44 1

#	End of record

