#	Name: ASD00990066
#	Creating user name:	WinNT
#	Creation time:	15. 06. 2019 18:54

#	Modifying user name:	WinNT
#	Modification time:	15. 06. 2019 18:54

#	Program:	/corina/corina34_cracker 3.40 0067  02.08.2006

@<TRIPOS>MOLECULE
ASD00990066
  98  100    0    0    0
SMALL
NO_CHARGES


@<TRIPOS>ATOM
   1 C1            -0.0170     1.4004     0.0097 C.ar    
   2 C2             0.0021    -0.0041     0.0020 C.ar    
   3 C3            -1.1902    -0.7149     0.0096 C.ar    
   4 C4            -2.3918    -0.0408     0.0247 C.ar    
   5 C5            -2.4188     1.3512     0.0324 C.ar    
   6 C6            -1.2421     2.0728     0.0301 C.ar    
   7 N7             1.2763     1.8141    -0.0004 N.2     
   8 C8             2.0666     0.7805    -0.0135 C.2     
   9 N9             1.3361    -0.3666    -0.0127 N.pl3   
  10 C10            3.5722     0.8451    -0.0283 C.3     
  11 N11            4.0739     0.8585     1.3480 N.am    
  12 C12            4.3791    -0.4023     2.0288 C.3     
  13 O13            4.7159     2.0432     3.2528 O.3     
  14 C14            4.8863     3.3418     3.8797 C.3     
  15 C15            3.5396     4.0664     3.9260 C.3     
  16 C16            5.4144     3.1554     5.3035 C.3     
  17 C17            5.8845     4.1719     3.0701 C.3     
  18 C18            4.2548     2.0308     1.9880 C.2     
  19 O19            4.0016     3.0766     1.4233 O.2     
  20 C20            1.8647    -1.7329    -0.0246 C.3     
  21 O21            2.0490    -2.1841     1.3187 O.3     
  22 C22            2.5640    -3.5132     1.4199 C.3     
  23 O23           -3.6116     2.0038     0.0473 O.3     
  24 C24           -4.7918     1.1982     0.0542 C.3     
  25 H25           -1.1761    -1.7948     0.0033 H       
  26 H26           -3.3184    -0.5956     0.0302 H       
  27 H27           -1.2681     3.1524     0.0362 H       
  28 H28            3.9681    -0.0257    -0.5508 H       
  29 H29            3.8919     1.7526    -0.5404 H       
  30 H30            5.4193    -0.6716     1.8456 H       
  31 H31            4.2175    -0.2850     3.1003 H       
  32 H32            3.7276    -1.1883     1.6470 H       
  33 H33            2.8284     3.4750     4.5028 H       
  34 H34            3.6675     5.0412     4.3966 H       
  35 H35            3.1633     4.1992     2.9116 H       
  36 H36            6.3738     2.6392     5.2706 H       
  37 H37            5.5423     4.1303     5.7741 H       
  38 H38            4.7032     2.5640     5.8803 H       
  39 H39            5.5083     4.3046     2.0557 H       
  40 H40            6.0124     5.1467     3.5407 H       
  41 H41            6.8439     3.6556     3.0371 H       
  42 H42            1.1610    -2.3902    -0.5354 H       
  43 H43            2.8210    -1.7479    -0.5474 H       
  44 H44            2.6751    -3.7807     2.4707 H       
  45 H45            1.8749    -4.2075     0.9391 H       
  46 H46            3.5349    -3.5651     0.9271 H       
  47 H47           -4.8108     0.5738    -0.8390 H       
  48 H48           -4.7938     0.5642     0.9409 H       
  49 H49           -5.6712     1.8421     0.0661 H       
  50 C50           17.4555    15.7561    11.7271 C.ar    
  51 C51           17.4746    14.3513    11.7194 C.ar    
  52 C52           16.2806    13.6433    11.7273 C.ar    
  53 C53           15.0792    14.3282    11.7429 C.ar    
  54 C54           15.0635    15.7204    11.7505 C.ar    
  55 C55           16.2307    16.4289    11.7475 C.ar    
  56 N56           18.7498    16.1695    11.7169 N.2     
  57 C57           19.5390    15.1357    11.7039 C.2     
  58 N58           18.8064    13.9881    11.7047 N.pl3   
  59 C59           21.0446    15.1989    11.6898 C.3     
  60 N60           21.5457    15.2114    13.0664 N.am    
  61 C61           21.8494    13.9500    13.7468 C.3     
  62 O62           22.1878    16.3947    14.9720 O.3     
  63 C63           22.3590    17.6929    15.5994 C.3     
  64 C64           21.0129    18.4187    15.6453 C.3     
  65 C65           22.8863    17.5056    17.0234 C.3     
  66 C66           23.3584    18.5224    14.7906 C.3     
  67 C67           21.7273    16.3833    13.7068 C.2     
  68 O68           21.4754    17.4295    13.1425 O.2     
  69 O69           13.9076    13.6386    11.7503 O.3     
  70 C70           12.7027    14.4068    11.7664 C.3     
  71 C71           19.3337    12.6213    11.6927 C.3     
  72 O72           19.5176    12.1699    13.0361 O.3     
  73 C73           20.0313    10.8403    13.1373 C.3     
  74 H74           16.2898    12.5634    11.7211 H       
  75 H75           14.1194    16.2447    11.7627 H       
  76 H76           16.2074    17.5086    11.7538 H       
  77 H77           21.4400    14.3279    11.1671 H       
  78 H78           21.3654    16.1063    11.1781 H       
  79 H79           22.8894    13.6798    13.5640 H       
  80 H80           21.6873    14.0670    14.8183 H       
  81 H81           21.1974    13.1647    13.3644 H       
  82 H82           20.3010    17.8278    16.2215 H       
  83 H83           21.1415    19.3933    16.1163 H       
  84 H84           20.6373    18.5522    14.6308 H       
  85 H85           23.8452    16.9885    16.9907 H       
  86 H86           23.0148    18.4801    17.4944 H       
  87 H87           22.1743    16.9146    17.5996 H       
  88 H88           22.9828    18.6559    13.7761 H       
  89 H89           23.4870    19.4970    15.2616 H       
  90 H90           24.3174    18.0053    14.7579 H       
  91 H91           12.6813    15.0303    12.6602 H       
  92 H92           12.6640    15.0405    10.8803 H       
  93 H93           11.8439    13.7356    11.7709 H       
  94 H94           18.6294    11.9646    11.1820 H       
  95 H95           20.2900    12.6054    11.1700 H       
  96 H96           20.1422    10.5727    14.1881 H       
  97 H97           19.3415    10.1467    12.6565 H       
  98 H98           21.0021    10.7874    12.6445 H       
@<TRIPOS>BOND
   1    1    2 ar
   2    1    7 1
   3    1    6 ar
   4    2    3 ar
   5    2    9 1
   6    3    4 ar
   7    3   25 1
   8    4    5 ar
   9    4   26 1
  10    5    6 ar
  11    5   23 1
  12    6   27 1
  13    7    8 2
  14    8    9 1
  15    8   10 1
  16    9   20 1
  17   10   11 1
  18   10   28 1
  19   10   29 1
  20   11   12 1
  21   11   18 am
  22   12   30 1
  23   12   31 1
  24   12   32 1
  25   13   14 1
  26   13   18 1
  27   14   15 1
  28   14   16 1
  29   14   17 1
  30   15   33 1
  31   15   34 1
  32   15   35 1
  33   16   36 1
  34   16   37 1
  35   16   38 1
  36   17   39 1
  37   17   40 1
  38   17   41 1
  39   18   19 2
  40   20   21 1
  41   20   42 1
  42   20   43 1
  43   21   22 1
  44   22   44 1
  45   22   45 1
  46   22   46 1
  47   23   24 1
  48   24   47 1
  49   24   48 1
  50   24   49 1
  51   50   51 ar
  52   50   56 1
  53   50   55 ar
  54   51   52 ar
  55   51   58 1
  56   52   53 ar
  57   52   74 1
  58   53   54 ar
  59   53   69 1
  60   54   55 ar
  61   54   75 1
  62   55   76 1
  63   56   57 2
  64   57   58 1
  65   57   59 1
  66   58   71 1
  67   59   60 1
  68   59   77 1
  69   59   78 1
  70   60   61 1
  71   60   67 am
  72   61   79 1
  73   61   80 1
  74   61   81 1
  75   62   63 1
  76   62   67 1
  77   63   64 1
  78   63   65 1
  79   63   66 1
  80   64   82 1
  81   64   83 1
  82   64   84 1
  83   65   85 1
  84   65   86 1
  85   65   87 1
  86   66   88 1
  87   66   89 1
  88   66   90 1
  89   67   68 2
  90   69   70 1
  91   70   91 1
  92   70   92 1
  93   70   93 1
  94   71   72 1
  95   71   94 1
  96   71   95 1
  97   72   73 1
  98   73   96 1
  99   73   97 1
 100   73   98 1

#	End of record

