#	Name: ASD00100130
#	Creating user name:	WinNT
#	Creation time:	15. 06. 2019 18:30

#	Modifying user name:	WinNT
#	Modification time:	15. 06. 2019 18:30

#	Program:	/corina/corina34_cracker 3.40 0067  02.08.2006

@<TRIPOS>MOLECULE
ASD00100130
  43   45    0    0    0
SMALL
NO_CHARGES


@<TRIPOS>ATOM
   1 O1             0.5039     1.1129    -0.2014 O.3     
   2 N2             0.6451    -0.0876    -0.2105 N.2     
   3 C3             1.9032    -0.4309    -0.0684 C.2     
   4 C4             2.6360     0.7779     0.0448 C.2     
   5 C5             1.6777     1.7510    -0.0481 C.2     
   6 C6             2.4499    -1.8085    -0.0324 C.2     
   7 O7             3.6432    -1.9846     0.1060 O.2     
   8 O8             1.6231    -2.8643    -0.1531 O.3     
   9 C9             2.8884     5.1357     0.1658 C.2     
  10 N10            3.0848     3.8404     0.1624 N.2     
  11 C11            1.8907     3.2110     0.0079 C.2     
  12 C12            0.9268     4.1654    -0.0867 C.2     
  13 N13            1.5572     5.3786     0.0130 N.pl3   
  14 C14            0.9163     6.6951    -0.0352 C.3     
  15 C15            0.9580     7.2228    -1.4462 C.ar    
  16 C16           -0.0234     6.8534    -2.3549 C.ar    
  17 C17            0.0179     7.3408    -3.6529 C.ar    
  18 C18            1.0354     8.1925    -4.0378 C.ar    
  19 C19            2.0122     8.5586    -3.1306 C.ar    
  20 C20            1.9699     8.0790    -1.8343 C.ar    
  21 O21           -1.0230     6.0152    -1.9740 O.3     
  22 C22           -1.9986     5.6779    -2.9622 C.3     
  23 N23            3.8719     6.0991     0.3075 N.pl3   
  24 C24            2.2279    -4.1836    -0.1089 C.3     
  25 C25            1.1401    -5.2487    -0.2609 C.3     
  26 H26            3.7010     0.9017     0.1743 H       
  27 H27           -0.1326     3.9994    -0.2154 H       
  28 H28           -0.1206     6.6064     0.2891 H       
  29 H29            1.4461     7.3815     0.6253 H       
  30 H30           -0.7446     7.0545    -4.3622 H       
  31 H31            1.0680     8.5723    -5.0483 H       
  32 H32            2.8072     9.2239    -3.4336 H       
  33 H33            2.7315     8.3703    -1.1260 H       
  34 H34           -2.7375     5.0044    -2.5281 H       
  35 H35           -2.4933     6.5852    -3.3088 H       
  36 H36           -1.5092     5.1869    -3.8033 H       
  37 H37            4.7911     5.8339     0.4671 H       
  38 H38            3.6419     7.0395     0.2471 H       
  39 H39            2.9477    -4.2808    -0.9218 H       
  40 H40            2.7372    -4.3181     0.8453 H       
  41 H41            0.4204    -5.1516     0.5519 H       
  42 H42            0.6308    -5.1143    -1.2152 H       
  43 H43            1.5941    -6.2391    -0.2278 H       
@<TRIPOS>BOND
   1    1    2 1
   2    1    5 1
   3    2    3 2
   4    3    4 1
   5    3    6 1
   6    4    5 2
   7    4   26 1
   8    5   11 1
   9    6    7 2
  10    6    8 1
  11    8   24 1
  12    9   10 2
  13    9   13 1
  14    9   23 1
  15   10   11 1
  16   11   12 2
  17   12   13 1
  18   12   27 1
  19   13   14 1
  20   14   15 1
  21   14   28 1
  22   14   29 1
  23   15   16 ar
  24   15   20 ar
  25   16   17 ar
  26   16   21 1
  27   17   18 ar
  28   17   30 1
  29   18   19 ar
  30   18   31 1
  31   19   20 ar
  32   19   32 1
  33   20   33 1
  34   21   22 1
  35   22   34 1
  36   22   35 1
  37   22   36 1
  38   23   37 1
  39   23   38 1
  40   24   25 1
  41   24   39 1
  42   24   40 1
  43   25   41 1
  44   25   42 1
  45   25   43 1

#	End of record

