#	Name: ASD00311165
#	Creating user name:	WinNT
#	Creation time:	15. 06. 2019 18:34

#	Modifying user name:	WinNT
#	Modification time:	15. 06. 2019 18:34

#	Program:	/corina/corina34_cracker 3.40 0067  02.08.2006

@<TRIPOS>MOLECULE
ASD00311165
  36   39    0    0    0
SMALL
NO_CHARGES


@<TRIPOS>ATOM
   1 C1            -0.0167     1.3774     0.0096 C.2     
   2 C2             0.0021    -0.0041     0.0020 C.2     
   3 C3             1.2587    -0.6767    -0.0131 C.2     
   4 C4             2.4314     0.0670    -0.0199 C.2     
   5 C5             2.3575     1.4746    -0.0117 C.2     
   6 N6             1.1650     2.0899     0.0022 N.am    
   7 C7            -1.3434    -0.5755     0.0118 C.2     
   8 C8            -2.3233     0.3267     0.0260 C.2     
   9 S9            -1.6791     1.9565     0.0358 S.3     
  10 O10            3.3826     2.1367    -0.0171 O.2     
  11 C11           -1.5960    -2.0354     0.0059 C.ar    
  12 C12           -2.2070    -2.6446     1.1015 C.ar    
  13 C13           -2.4400    -4.0046     1.0900 C.ar    
  14 C14           -2.0684    -4.7636    -0.0053 C.ar    
  15 C15           -1.4619    -4.1650    -1.0952 C.ar    
  16 C16           -1.2289    -2.8049    -1.0977 C.ar    
  17 O17            1.3085    -2.0294    -0.0204 O.3     
  18 C18            3.7478    -0.6127    -0.0352 C.ar    
  19 C19            4.5934    -0.4750    -1.1355 C.ar    
  20 C20            5.8185    -1.1096    -1.1448 C.ar    
  21 C21            6.2089    -1.8828    -0.0635 C.ar    
  22 C22            5.3723    -2.0227     1.0320 C.ar    
  23 C23            4.1477    -1.3875     1.0532 C.ar    
  24 F24            7.4091    -2.5029    -0.0776 F       
  25 Cl25          -4.0154    -0.0609     0.0400 Cl      
  26 H26            1.1329     3.0594     0.0077 H       
  27 H27           -2.4968    -2.0532     1.9574 H       
  28 H28           -2.9131    -4.4775     1.9379 H       
  29 H29           -2.2522    -5.8279    -0.0095 H       
  30 H30           -1.1740    -4.7627    -1.9474 H       
  31 H31           -0.7594    -2.3380    -1.9509 H       
  32 H32            2.2058    -2.3899    -0.0307 H       
  33 H33            4.2897     0.1270    -1.9792 H       
  34 H34            6.4741    -1.0036    -1.9964 H       
  35 H35            5.6809    -2.6268     1.8723 H       
  36 H36            3.4982    -1.4934     1.9095 H       
@<TRIPOS>BOND
   1    1    2 2
   2    1    6 1
   3    1    9 1
   4    2    3 1
   5    2    7 1
   6    3    4 2
   7    3   17 1
   8    4    5 1
   9    4   18 1
  10    5    6 am
  11    5   10 2
  12    6   26 1
  13    7    8 2
  14    7   11 1
  15    8    9 1
  16    8   25 1
  17   11   12 ar
  18   11   16 ar
  19   12   13 ar
  20   12   27 1
  21   13   14 ar
  22   13   28 1
  23   14   15 ar
  24   14   29 1
  25   15   16 ar
  26   15   30 1
  27   16   31 1
  28   17   32 1
  29   18   19 ar
  30   18   23 ar
  31   19   20 ar
  32   19   33 1
  33   20   21 ar
  34   20   34 1
  35   21   22 ar
  36   21   24 1
  37   22   23 ar
  38   22   35 1
  39   23   36 1

#	End of record

