#	Name: ASD03330664
#	Creating user name:	WinNT
#	Creation time:	15. 06. 2019 20:37

#	Modifying user name:	WinNT
#	Modification time:	15. 06. 2019 20:37

#	Program:	/corina/corina34_cracker 3.40 0067  02.08.2006

@<TRIPOS>MOLECULE
ASD03330664
  57   58    0    0    0
SMALL
NO_CHARGES


@<TRIPOS>ATOM
   1 C1            -1.3245     2.7902    -0.9964 C.2     
   2 N2            -1.7542     1.5252    -1.2462 N.pl3   
   3 C3             0.0377     2.7591    -1.0000 C.2     
   4 N4             0.4211     1.4923    -1.2665 N.2     
   5 C5            -0.6479     0.7440    -1.4218 C.2     
   6 C6            -0.6522    -0.6954    -1.7335 C.2     
   7 C7             0.9329     3.9043    -0.7572 C.2     
   8 O8             0.4656     5.0033    -0.5270 O.2     
   9 C9             3.1593     4.8722    -0.5488 C.3     
  10 N10            2.2694     3.7338    -0.7902 N.am    
  11 C11            3.3663     5.0474     0.9570 C.3     
  12 C12            4.1197     3.8373     1.5125 C.3     
  13 C13            4.1795     6.3173     1.2156 C.3     
  14 C14            2.0064     5.1630     1.6486 C.3     
  15 C15            4.4886     4.6202    -1.2126 C.2     
  16 N16            5.3801     5.6232    -1.3378 N.am    
  17 O17            4.7562     3.5149    -1.6340 O.2     
  18 C18            6.7060     5.3586    -1.9021 C.3     
  19 C19           -3.1550     1.0980    -1.2980 C.3     
  20 C20           -3.9501     2.0864    -2.1569 C.3     
  21 C21           -4.4513     3.2364    -1.2892 C.3     
  22 N22           -3.4951     3.5492    -0.2254 N.3     
  23 C23           -2.2066     3.9922    -0.7783 C.3     
  24 C24           -4.0441     4.5512     0.6980 C.3     
  25 C25           -1.2413    -1.5523    -0.9067 C.2     
  26 F26           -0.8831    -1.0984    -4.0612 F       
  27 C27            0.0118    -1.1962    -2.9903 C.3     
  28 F28            1.1462    -0.4227    -3.2583 F       
  29 F29            0.3885    -2.5325    -2.8179 F       
  30 H30            2.7126     5.7766    -0.9619 H       
  31 H31            2.6421     2.8572    -0.9738 H       
  32 H32            5.0885     3.7549     1.0198 H       
  33 H33            4.2671     3.9621     2.5852 H       
  34 H34            3.5403     2.9326     1.3282 H       
  35 H35            3.5884     7.1901     0.9385 H       
  36 H36            4.4379     6.3743     2.2730 H       
  37 H37            5.0918     6.2922     0.6196 H       
  38 H38            1.4270     4.2584     1.4643 H       
  39 H39            2.1538     5.2879     2.7213 H       
  40 H40            1.4696     6.0252     1.2528 H       
  41 H41            5.1439     6.5203    -1.0544 H       
  42 H42            7.2226     4.6224    -1.2862 H       
  43 H43            6.5990     4.9731    -2.9161 H       
  44 H44            7.2828     6.2832    -1.9238 H       
  45 H45           -3.2163     0.1024    -1.7373 H       
  46 H46           -3.5674     1.0782    -0.2893 H       
  47 H47           -3.3080     2.4800    -2.9449 H       
  48 H48           -4.8007     1.5737    -2.6060 H       
  49 H49           -4.5941     4.1190    -1.9127 H       
  50 H50           -5.4054     2.9574    -0.8419 H       
  51 H51           -1.7252     4.6753    -0.0785 H       
  52 H52           -2.3728     4.4995    -1.7286 H       
  53 H53           -4.9574     4.1658     1.1512 H       
  54 H54           -3.3136     4.7652     1.4782 H       
  55 H55           -4.2687     5.4661     0.1497 H       
  56 H56           -1.2947    -2.6001    -1.1631 H       
  57 H57           -1.6669    -1.2011     0.0217 H       
@<TRIPOS>BOND
   1    1    2 1
   2    1    3 2
   3    1   23 1
   4    2   19 1
   5    2    5 1
   6    3    4 1
   7    3    7 1
   8    4    5 2
   9    5    6 1
  10    6   25 2
  11    6   27 1
  12    7    8 2
  13    7   10 am
  14    9   10 1
  15    9   11 1
  16    9   15 1
  17    9   30 1
  18   10   31 1
  19   11   12 1
  20   11   13 1
  21   11   14 1
  22   12   32 1
  23   12   33 1
  24   12   34 1
  25   13   35 1
  26   13   36 1
  27   13   37 1
  28   14   38 1
  29   14   39 1
  30   14   40 1
  31   15   16 am
  32   15   17 2
  33   16   18 1
  34   16   41 1
  35   18   42 1
  36   18   43 1
  37   18   44 1
  38   19   20 1
  39   19   45 1
  40   19   46 1
  41   20   21 1
  42   20   47 1
  43   20   48 1
  44   21   22 1
  45   21   49 1
  46   21   50 1
  47   22   23 1
  48   22   24 1
  49   23   51 1
  50   23   52 1
  51   24   53 1
  52   24   54 1
  53   24   55 1
  54   25   56 1
  55   25   57 1
  56   26   27 1
  57   27   28 1
  58   27   29 1

#	End of record

