#	Name: ASD01410439
#	Creating user name:	WinNT
#	Creation time:	15. 06. 2019 19:17

#	Modifying user name:	WinNT
#	Modification time:	15. 06. 2019 19:17

#	Program:	/corina/corina34_cracker 3.40 0067  02.08.2006

@<TRIPOS>MOLECULE
ASD01410439
  54   58    0    0    0
SMALL
NO_CHARGES


@<TRIPOS>ATOM
   1 C1            -2.5980     4.6062    -2.8191 C.ar    
   2 C2            -3.2421     4.1445    -3.9657 C.ar    
   3 C3            -4.3098     3.2768    -3.8554 C.ar    
   4 C4            -4.7435     2.8632    -2.6096 C.ar    
   5 C5            -4.1075     3.3183    -1.4626 C.ar    
   6 C6            -3.0311     4.1851    -1.5647 C.ar    
   7 C7            -2.3393     4.6804    -0.3209 C.3     
   8 O8            -4.5369     2.9094    -0.2400 O.3     
   9 C9            -5.5668     2.0236    -0.1887 C.ar    
  10 C10           -5.3254     0.6683    -0.3963 C.ar    
  11 C11           -6.3572    -0.2447    -0.3476 C.ar    
  12 C12           -7.6500     0.1897    -0.0893 C.ar    
  13 C13           -7.8972     1.5589     0.1210 C.ar    
  14 C14           -6.8481     2.4730     0.0752 C.ar    
  15 F15           -2.4348     3.7110     0.6833 F       
  16 F16           -0.9917     4.9274    -0.6039 F       
  17 F17           -2.9491     5.8625     0.1126 F       
  18 N18           -8.7171    -0.6865    -0.0309 N.pl3   
  19 C19           -9.9577    -0.2346     0.2205 C.2     
  20 N20          -10.2373     1.0233     0.4219 N.2     
  21 C21           -9.2852     1.9747     0.3916 C.2     
  22 O22           -9.5630     3.1463     0.5820 O.2     
  23 C23           -8.4945    -2.1185    -0.2452 C.3     
  24 C24           -8.3194    -2.8043     1.0852 C.ar    
  25 C25           -9.4298    -3.1874     1.8179 C.ar    
  26 C26           -9.2690    -3.8173     3.0400 C.ar    
  27 C27           -7.9978    -4.0645     3.5294 C.ar    
  28 C28           -6.8875    -3.6822     2.7964 C.ar    
  29 C29           -7.0483    -3.0562     1.5722 C.ar    
  30 F30           -5.9647    -2.6830     0.8568 F       
  31 F31           -7.8409    -4.6784     4.7226 F       
  32 F32          -10.6703    -2.9462     1.3403 F       
  33 C33           -1.4499     5.5392    -2.9352 C.ar    
  34 C34           -0.3958     5.2468    -3.7982 C.ar    
  35 C35            0.6696     6.1180    -3.9023 C.ar    
  36 C36            0.6921     7.2797    -3.1518 C.ar    
  37 C37           -0.3517     7.5750    -2.2935 C.ar    
  38 C38           -1.4247     6.7137    -2.1859 C.ar    
  39 H39           -2.9060     4.4660    -4.9405 H       
  40 H40           -4.8081     2.9202    -4.7447 H       
  41 H41           -5.5796     2.1844    -2.5284 H       
  42 H42           -4.3201     0.3289    -0.5977 H       
  43 H43           -6.1605    -1.2941    -0.5103 H       
  44 H44           -7.0342     3.5245     0.2364 H       
  45 H45          -10.7653    -0.9507     0.2573 H       
  46 H46           -9.3524    -2.5459    -0.7642 H       
  47 H47           -7.5975    -2.2606    -0.8480 H       
  48 H48          -10.1352    -4.1156     3.6119 H       
  49 H49           -5.8958    -3.8747     3.1783 H       
  50 H50           -0.4121     4.3398    -4.3844 H       
  51 H51            1.4874     5.8922    -4.5706 H       
  52 H52            1.5278     7.9586    -3.2360 H       
  53 H53           -0.3289     8.4833    -1.7096 H       
  54 H54           -2.2394     6.9454    -1.5158 H       
@<TRIPOS>BOND
   1    1    2 ar
   2    1   33 1
   3    1    6 ar
   4    2    3 ar
   5    2   39 1
   6    3    4 ar
   7    3   40 1
   8    4    5 ar
   9    4   41 1
  10    5    6 ar
  11    5    8 1
  12    6    7 1
  13    7   15 1
  14    7   16 1
  15    7   17 1
  16    8    9 1
  17    9   10 ar
  18    9   14 ar
  19   10   11 ar
  20   10   42 1
  21   11   12 ar
  22   11   43 1
  23   12   13 ar
  24   12   18 1
  25   13   14 ar
  26   13   21 1
  27   14   44 1
  28   18   19 1
  29   18   23 1
  30   19   20 2
  31   19   45 1
  32   20   21 1
  33   21   22 2
  34   23   24 1
  35   23   46 1
  36   23   47 1
  37   24   25 ar
  38   24   29 ar
  39   25   26 ar
  40   25   32 1
  41   26   27 ar
  42   26   48 1
  43   27   28 ar
  44   27   31 1
  45   28   29 ar
  46   28   49 1
  47   29   30 1
  48   33   34 ar
  49   33   38 ar
  50   34   35 ar
  51   34   50 1
  52   35   36 ar
  53   35   51 1
  54   36   37 ar
  55   36   52 1
  56   37   38 ar
  57   37   53 1
  58   38   54 1

#	End of record

