#	Name: ASD01814709
#	Creating user name:	WinNT
#	Creation time:	15. 06. 2019 19:32

#	Modifying user name:	WinNT
#	Modification time:	15. 06. 2019 19:32

#	Program:	/corina/corina34_cracker 3.40 0067  02.08.2006

@<TRIPOS>MOLECULE
ASD01814709
  55   59    0    0    0
SMALL
NO_CHARGES


@<TRIPOS>ATOM
   1 C1            -0.0184     1.5028     0.0103 C.3     
   2 C2             0.0021    -0.0041     0.0020 C.ar    
   3 C3             0.0056    -0.6804    -1.2030 C.ar    
   4 C4             0.0249    -2.0669    -1.1996 C.ar    
   5 C5             0.0400    -2.7236     0.0212 C.ar    
   6 C6             0.0618    -4.2294     0.0774 C.3     
   7 C7             1.4897    -4.7111     0.0894 C.ar    
   8 C8             2.0834    -5.0596    -1.0769 C.ar    
   9 C9             3.4117    -5.5136    -1.1123 C.ar    
  10 C10            4.0614    -5.8923    -2.3723 C.2     
  11 O11            3.4607    -5.8224    -3.4304 O.2     
  12 N12            5.3420    -6.3200    -2.3304 N.am    
  13 N13            6.0343    -6.4013    -1.1203 N.2     
  14 C14            5.4928    -6.0747     0.0169 C.2     
  15 C15            4.1589    -5.6162     0.0759 C.ar    
  16 C16            3.5251    -5.2426     1.3373 C.ar    
  17 C17            4.2096    -5.3203     2.5539 C.ar    
  18 C18            3.5779    -4.9608     3.7088 C.ar    
  19 C19            2.2594    -4.5178     3.6913 C.ar    
  20 C20            1.5640    -4.4309     2.5221 C.ar    
  21 C21            2.1850    -4.7852     1.3146 C.ar    
  22 C22            6.0148    -6.7050    -3.5735 C.3     
  23 H23            5.3293    -6.5793    -4.4116 H       
  24 C24            7.2446    -5.8192    -3.7832 C.3     
  25 C25            7.9473    -6.2212    -5.0815 C.3     
  26 C26            8.3824    -7.6854    -4.9936 C.3     
  27 C27            7.1527    -8.5712    -4.7839 C.3     
  28 C28            6.4500    -8.1692    -3.4856 C.3     
  29 H29            7.1354    -8.2948    -2.6475 H       
  30 O30            5.3014    -8.9965    -3.2897 O.3     
  31 C31            0.0354    -1.9798     1.1862 C.ar    
  32 N32            0.0219    -0.6619     1.1449 N.ar    
  33 H33            1.0042     1.8801     0.0026 H       
  34 H34           -0.5455     1.8639    -0.8728 H       
  35 H35           -0.5286     1.8543     0.9071 H       
  36 H36           -0.0069    -0.1359    -2.1356 H       
  37 H37            0.0278    -2.6220    -2.1261 H       
  38 H38           -0.4431    -4.5665     0.9827 H       
  39 H39           -0.4505    -4.6330    -0.7960 H       
  40 H40            1.5241    -4.9872    -1.9979 H       
  41 H41            6.0704    -6.1552     0.9259 H       
  42 H42            5.2333    -5.6635     2.5795 H       
  43 H43            4.1079    -5.0214     4.6479 H       
  44 H44            1.7795    -4.2389     4.6177 H       
  45 H45            0.5408    -4.0855     2.5244 H       
  46 H46            6.9346    -4.7761    -3.8459 H       
  47 H47            7.9300    -5.9448    -2.9451 H       
  48 H48            7.2618    -6.0956    -5.9196 H       
  49 H49            8.8234    -5.5901    -5.2309 H       
  50 H50            8.8830    -7.9718    -5.9185 H       
  51 H51            9.0679    -7.8110    -4.1555 H       
  52 H52            6.4672    -8.4456    -5.6220 H       
  53 H53            7.4627    -9.6143    -4.7212 H       
  54 H54            5.5028    -9.9401    -3.2248 H       
  55 H55            0.0467    -2.4838     2.1413 H       
@<TRIPOS>BOND
   1    1    2 1
   2    1   33 1
   3    1   34 1
   4    1   35 1
   5    2   32 ar
   6    2    3 ar
   7    3    4 ar
   8    3   36 1
   9    4    5 ar
  10    4   37 1
  11    5    6 1
  12    5   31 ar
  13    6    7 1
  14    6   38 1
  15    6   39 1
  16    7   21 ar
  17    7    8 ar
  18    8    9 ar
  19    8   40 1
  20    9   15 ar
  21    9   10 1
  22   10   11 2
  23   10   12 am
  24   12   13 1
  25   12   22 1
  26   13   14 2
  27   14   15 1
  28   14   41 1
  29   15   16 ar
  30   16   21 ar
  31   16   17 ar
  32   17   18 ar
  33   17   42 1
  34   18   19 ar
  35   18   43 1
  36   19   20 ar
  37   19   44 1
  38   20   21 ar
  39   20   45 1
  40   22   23 1
  41   22   28 1
  42   22   24 1
  43   24   25 1
  44   24   46 1
  45   24   47 1
  46   25   26 1
  47   25   48 1
  48   25   49 1
  49   26   27 1
  50   26   50 1
  51   26   51 1
  52   27   28 1
  53   27   52 1
  54   27   53 1
  55   28   29 1
  56   28   30 1
  57   30   54 1
  58   31   32 ar
  59   31   55 1

#	End of record

