#	Name: ASD01901291
#	Creating user name:	WinNT
#	Creation time:	15. 06. 2019 19:53

#	Modifying user name:	WinNT
#	Modification time:	15. 06. 2019 19:53

#	Program:	/corina/corina34_cracker 3.40 0067  02.08.2006

@<TRIPOS>MOLECULE
ASD01901291
  47   50    0    0    0
SMALL
NO_CHARGES


@<TRIPOS>ATOM
   1 C1            -0.0166     1.3750     0.0096 C.ar    
   2 C2             0.0021    -0.0041     0.0020 C.ar    
   3 C3             1.2078    -0.6830    -0.0127 C.ar    
   4 C4             2.4027     0.0149    -0.0199 C.ar    
   5 C5             2.3997     1.3941    -0.0129 C.ar    
   6 C6             1.1860     2.0866     0.0019 C.ar    
   7 C7             1.1748     3.5185     0.0093 C.1     
   8 C8             1.1656     4.6925     0.0153 C.1     
   9 C9             1.1543     6.1244     0.0226 C.ar    
  10 C10           -0.0679     8.1952     0.0502 C.ar    
  11 C11           -0.0607     6.8154     0.0432 C.ar    
  12 C12            2.3584     6.8345     0.0149 C.ar    
  13 C13            2.3438     8.2143     0.0220 C.ar    
  14 C14            1.1325     8.8989     0.0367 C.ar    
  15 N15            1.1215    10.3004     0.0429 N.am    
  16 N16            1.0831    12.3056    -1.1982 N.am    
  17 C17            1.0947    10.9634    -1.1238 C.2     
  18 C18            1.1325    10.9575     1.2228 C.2     
  19 C19            1.0537    12.9596    -2.5087 C.3     
  20 O20            1.1521    10.3487     2.2753 O.2     
  21 O21            1.0807    10.3230    -2.1572 O.2     
  22 C22            1.0983    13.0779    -0.0440 C.ar    
  23 F23           -1.2417     8.8638     0.0701 F       
  24 F24            3.5071     8.9014     0.0150 F       
  25 C25            1.1205    12.4309     1.2023 C.ar    
  26 C26            1.0861    14.4680    -0.0968 C.ar    
  27 C27            1.1302    13.1801     2.3779 C.ar    
  28 C28            1.1179    14.5570     2.3081 C.ar    
  29 C29            1.0960    15.1985     1.0793 C.ar    
  30 O30            1.0592    15.1060    -1.2973 O.3     
  31 C31            1.0481    16.5348    -1.2726 C.3     
  32 H32           -0.9584     1.9035     0.0169 H       
  33 H33           -0.9266    -0.5554     0.0079 H       
  34 H34            1.2163    -1.7630    -0.0182 H       
  35 H35            3.3399    -0.5217    -0.0306 H       
  36 H36            3.3331     1.9374    -0.0182 H       
  37 H37           -0.9928     6.2698     0.0533 H       
  38 H38            3.2989     6.3038     0.0038 H       
  39 H39            1.0449    12.2023    -3.2926 H       
  40 H40            0.1574    13.5748    -2.5878 H       
  41 H41            1.9370    13.5884    -2.6209 H       
  42 H42            1.1470    12.6849     3.3375 H       
  43 H43            1.1251    15.1399     3.2173 H       
  44 H44            1.0869    16.2777     1.0391 H       
  45 H45            0.1648    16.8820    -0.7366 H       
  46 H46            1.9444    16.8964    -0.7688 H       
  47 H47            1.0265    16.9157    -2.2937 H       
@<TRIPOS>BOND
   1    1    2 ar
   2    1    6 ar
   3    1   32 1
   4    2    3 ar
   5    2   33 1
   6    3    4 ar
   7    3   34 1
   8    4    5 ar
   9    4   35 1
  10    5    6 ar
  11    5   36 1
  12    6    7 1
  13    7    8 3
  14    8    9 1
  15    9   12 ar
  16    9   11 ar
  17   10   11 ar
  18   10   14 ar
  19   10   23 1
  20   11   37 1
  21   12   13 ar
  22   12   38 1
  23   13   14 ar
  24   13   24 1
  25   14   15 1
  26   15   18 am
  27   15   17 am
  28   16   17 am
  29   16   22 1
  30   16   19 1
  31   17   21 2
  32   18   25 1
  33   18   20 2
  34   19   39 1
  35   19   40 1
  36   19   41 1
  37   22   25 ar
  38   22   26 ar
  39   25   27 ar
  40   26   29 ar
  41   26   30 1
  42   27   28 ar
  43   27   42 1
  44   28   29 ar
  45   28   43 1
  46   29   44 1
  47   30   31 1
  48   31   45 1
  49   31   46 1
  50   31   47 1

#	End of record

