#	Name: ASD01150934
#	Creating user name:	WinNT
#	Creation time:	15. 06. 2019 19:05

#	Modifying user name:	WinNT
#	Modification time:	15. 06. 2019 19:05

#	Program:	/corina/corina34_cracker 3.40 0067  02.08.2006

@<TRIPOS>MOLECULE
ASD01150934
  49   52    0    0    0
SMALL
NO_CHARGES


@<TRIPOS>ATOM
   1 N1             0.1835     1.1557    -0.0063 N.pl3   
   2 C2             0.0887    -0.2008    -0.1716 C.2     
   3 C3             1.2259    -0.9190    -0.4250 C.2     
   4 C4             2.4500    -0.2554    -0.5086 C.2     
   5 N5             2.5127     1.0478    -0.3453 N.2     
   6 C6             1.4078     1.7672    -0.0968 C.2     
   7 N7            -1.1332    -0.8328    -0.0837 N.pl3   
   8 C8            -1.4339    -1.7275     1.0423 C.3     
   9 C9            -1.8934    -3.0799     0.4884 C.3     
  10 C10           -3.0653    -2.8618    -0.4714 C.3     
  11 C11           -2.6112    -1.9889    -1.6436 C.3     
  12 C12           -2.1618    -0.6198    -1.1109 C.3     
  13 N13           -0.7715     2.1425     0.2627 N.2     
  14 C14            1.2027     3.1223     0.1103 C.2     
  15 C15           -0.1649     3.3138     0.3292 C.2     
  16 C16           -0.8247     4.6163     0.5963 C.ar    
  17 C17           -2.2013     4.6729     0.8034 C.ar    
  18 C18           -2.8102     5.8862     1.0513 C.ar    
  19 C19           -2.0556     7.0460     1.0939 C.ar    
  20 C20           -0.6875     6.9949     0.8887 C.ar    
  21 C21           -0.0686     5.7855     0.6463 C.ar    
  22 C22           -0.1770    -1.9220     1.8928 C.3     
  23 C23           -0.5141    -2.7831     3.1117 C.3     
  24 O24            0.6278    -2.8660     3.9668 O.3     
  25 C25            3.7082    -1.0368    -0.7872 C.3     
  26 Cl26          -2.8274     8.5696     1.4050 Cl      
  27 H27            1.1760    -1.9896    -0.5586 H       
  28 H28           -2.2266    -1.2939     1.6520 H       
  29 H29           -1.0694    -3.5535    -0.0451 H       
  30 H30           -2.2112    -3.7208     1.3108 H       
  31 H31           -3.4102    -3.8248    -0.8481 H       
  32 H32           -3.8797    -2.3658     0.0565 H       
  33 H33           -1.7804    -2.4728    -2.1571 H       
  34 H34           -3.4398    -1.8534    -2.3387 H       
  35 H35           -3.0127    -0.0977    -0.6733 H       
  36 H36           -1.7468    -0.0273    -1.9262 H       
  37 H37            1.9619     3.8905     0.1059 H       
  38 H38           -2.7909     3.7687     0.7697 H       
  39 H39           -3.8772     5.9311     1.2120 H       
  40 H40           -0.1029     7.9024     0.9225 H       
  41 H41            0.9994     5.7459     0.4907 H       
  42 H42            0.5906    -2.4179     1.2986 H       
  43 H43            0.1911    -0.9511     2.2244 H       
  44 H44           -1.3440    -2.3328     3.6563 H       
  45 H45           -0.7954    -3.7836     2.7831 H       
  46 H46            0.5115    -3.4588     4.7219 H       
  47 H47            3.8230    -1.1691    -1.8630 H       
  48 H48            4.5677    -0.4937    -0.3942 H       
  49 H49            3.6439    -2.0126    -0.3059 H       
@<TRIPOS>BOND
   1    1    2 1
   2    1    6 1
   3    1   13 1
   4    2    3 2
   5    2    7 1
   6    3    4 1
   7    3   27 1
   8    4    5 2
   9    4   25 1
  10    5    6 1
  11    6   14 2
  12    7    8 1
  13    7   12 1
  14    8    9 1
  15    8   22 1
  16    8   28 1
  17    9   10 1
  18    9   29 1
  19    9   30 1
  20   10   11 1
  21   10   31 1
  22   10   32 1
  23   11   12 1
  24   11   33 1
  25   11   34 1
  26   12   35 1
  27   12   36 1
  28   13   15 2
  29   14   15 1
  30   14   37 1
  31   15   16 1
  32   16   17 ar
  33   16   21 ar
  34   17   18 ar
  35   17   38 1
  36   18   19 ar
  37   18   39 1
  38   19   20 ar
  39   19   26 1
  40   20   21 ar
  41   20   40 1
  42   21   41 1
  43   22   23 1
  44   22   42 1
  45   22   43 1
  46   23   24 1
  47   23   44 1
  48   23   45 1
  49   24   46 1
  50   25   47 1
  51   25   48 1
  52   25   49 1

#	End of record

