#	Name: ASD01883694
#	Creating user name:	WinNT
#	Creation time:	15. 06. 2019 19:46

#	Modifying user name:	WinNT
#	Modification time:	15. 06. 2019 19:46

#	Program:	/corina/corina34_cracker 3.40 0067  02.08.2006

@<TRIPOS>MOLECULE
ASD01883694
  42   44    0    0    0
SMALL
NO_CHARGES


@<TRIPOS>ATOM
   1 C1            -0.0205     1.3938     0.0179 C.2     
   2 C2            -0.0003    -0.0082     0.0003 C.2     
   3 C3            -1.2239    -0.7099    -0.0023 C.2     
   4 C4            -2.3994    -0.0537     0.0114 C.2     
   5 N5            -2.4650     1.3092     0.0284 N.pl3   
   6 C6            -1.3213     2.0660     0.0392 C.2     
   7 C7            -3.5199     2.1843     0.0438 C.2     
   8 C8            -3.0030     3.4311     0.0567 C.2     
   9 N9            -1.6690     3.3402     0.0546 N.2     
  10 C10           -4.9827     1.8222     0.0455 C.3     
  11 C11           -5.5141     1.8397    -1.3891 C.3     
  12 C12            1.2842    -0.7400    -0.0159 C.ar    
  13 C13            1.6455    -1.5437     1.0671 C.ar    
  14 C14            2.8438    -2.2246     1.0488 C.ar    
  15 C15            3.6921    -2.1119    -0.0447 C.ar    
  16 C16            3.3367    -1.3123    -1.1253 C.ar    
  17 C17            2.1368    -0.6336    -1.1172 C.ar    
  18 O18            4.8724    -2.7841    -0.0586 O.3     
  19 C19            5.2309    -3.4901     1.1309 C.3     
  20 F20           -4.8051     0.9124    -2.1603 F       
  21 F21           -6.8722     1.5035    -1.3875 F       
  22 F22           -5.3510     3.1190    -1.9313 F       
  23 Cl23           4.4015    -1.1747    -2.4895 Cl      
  24 C24            4.5786    -4.8740     1.1189 C.3     
  25 C25            6.7519    -3.6438     1.1940 C.3     
  26 C26            1.1973     2.1472     0.0212 C.1     
  27 N27            2.1633     2.7449     0.0237 N.1     
  28 H28           -1.2178    -1.7898    -0.0159 H       
  29 H29           -3.3173    -0.6227     0.0086 H       
  30 H30           -3.5720     4.3490     0.0701 H       
  31 H31           -5.1098     0.8255     0.4680 H       
  32 H32           -5.5352     2.5447     0.6464 H       
  33 H33            0.9868    -1.6316     1.9185 H       
  34 H34            3.1235    -2.8463     1.8864 H       
  35 H35            1.8608    -0.0128    -1.9568 H       
  36 H36            4.8856    -2.9333     2.0020 H       
  37 H37            4.9239    -5.4309     0.2478 H       
  38 H38            4.8520    -5.4125     2.0263 H       
  39 H39            3.4950    -4.7646     1.0740 H       
  40 H40            7.2166    -2.6579     1.2025 H       
  41 H41            7.0254    -4.1823     2.1013 H       
  42 H42            7.0972    -4.2007     0.3229 H       
@<TRIPOS>BOND
   1    1    2 2
   2    1   26 1
   3    1    6 1
   4    2    3 1
   5    2   12 1
   6    3    4 2
   7    3   28 1
   8    4    5 1
   9    4   29 1
  10    5    6 1
  11    5    7 1
  12    6    9 2
  13    7    8 2
  14    7   10 1
  15    8    9 1
  16    8   30 1
  17   10   11 1
  18   10   31 1
  19   10   32 1
  20   11   20 1
  21   11   21 1
  22   11   22 1
  23   12   13 ar
  24   12   17 ar
  25   13   14 ar
  26   13   33 1
  27   14   15 ar
  28   14   34 1
  29   15   16 ar
  30   15   18 1
  31   16   17 ar
  32   16   23 1
  33   17   35 1
  34   18   19 1
  35   19   24 1
  36   19   25 1
  37   19   36 1
  38   24   37 1
  39   24   38 1
  40   24   39 1
  41   25   40 1
  42   25   41 1
  43   25   42 1
  44   26   27 3

#	End of record

