#	Name: ASD03330618
#	Creating user name:	WinNT
#	Creation time:	15. 06. 2019 20:37

#	Modifying user name:	WinNT
#	Modification time:	15. 06. 2019 20:37

#	Program:	/corina/corina34_cracker 3.40 0067  02.08.2006

@<TRIPOS>MOLECULE
ASD03330618
  68   71    0    0    0
SMALL
NO_CHARGES


@<TRIPOS>ATOM
   1 C1            -0.3235     1.1664     0.8411 C.2     
   2 N2            -0.3547    -0.1670     1.0736 N.pl3   
   3 C3             0.9820     1.5525     0.8890 C.2     
   4 N4             1.7278     0.4527     1.1313 N.2     
   5 C5             0.9331    -0.5861     1.2380 C.2     
   6 C6             1.3621    -1.9790     1.4941 C.ar    
   7 C7             1.4897     2.9240     0.7079 C.2     
   8 O8             0.7143     3.8360     0.4929 O.2     
   9 C9             3.3179     4.5313     0.6005 C.3     
  10 N10            2.8132     3.1678     0.7805 N.am    
  11 C11            3.4962     4.8162    -0.8921 C.3     
  12 C12            2.1300     4.8015    -1.5808 C.3     
  13 C13            4.1449     6.1897    -1.0752 C.3     
  14 C14            4.3918     3.7423    -1.5129 C.3     
  15 C15            4.6449     4.6723     1.3008 C.2     
  16 N16            5.1817     5.8943     1.4876 N.am    
  17 O17            5.2297     3.6861     1.6962 O.2     
  18 C18            6.5044     6.0269     2.1033 C.3     
  19 C19           -1.5656    -0.9893     1.1461 C.3     
  20 C20           -2.4703    -0.6585    -0.0449 C.3     
  21 C21           -3.3820     0.5119     0.3101 C.3     
  22 N22           -2.7048     1.4526     1.2051 N.3     
  23 C23           -1.5193     2.0403     0.5639 C.3     
  24 C24           -3.6276     2.4989     1.6651 C.3     
  25 C25            2.6131    -2.4140     1.0643 C.ar    
  26 C26            3.0096    -3.7271     1.3099 C.ar    
  27 C27            2.1514    -4.5975     1.9846 C.ar    
  28 C28            0.9119    -4.1596     2.4077 C.ar    
  29 C29            0.5156    -2.8581     2.1724 C.ar    
  30 C30            4.3361    -4.1977     0.8566 C.2     
  31 O31            4.8464    -5.4339     1.0252 O.3     
  32 N32            5.2334    -3.4913     0.2102 N.2     
  33 N33            6.2650    -4.2248    -0.0204 N.2     
  34 C34            6.0670    -5.4195     0.4627 C.2     
  35 C35            7.0323    -6.5752     0.4018 C.3     
  36 H36            2.6067     5.2407     1.0234 H       
  37 H37            3.4316     2.4404     0.9520 H       
  38 H38            1.4919     5.5666    -1.1385 H       
  39 H39            2.2570     5.0045    -2.6442 H       
  40 H40            1.6679     3.8230    -1.4504 H       
  41 H41            5.1035     6.2108    -0.5569 H       
  42 H42            4.3017     6.3788    -2.1372 H       
  43 H43            3.4915     6.9581    -0.6620 H       
  44 H44            3.9297     2.7638    -1.3825 H       
  45 H45            4.5188     3.9453    -2.5763 H       
  46 H46            5.3651     3.7528    -1.0223 H       
  47 H47            4.6924     6.6860     1.2144 H       
  48 H48            6.4852     5.5922     3.1027 H       
  49 H49            7.2427     5.5053     1.4943 H       
  50 H50            6.7695     7.0820     2.1712 H       
  51 H51           -1.2922    -2.0440     1.1138 H       
  52 H52           -2.0947    -0.7776     2.0752 H       
  53 H53           -1.8553    -0.3912    -0.9042 H       
  54 H54           -3.0777    -1.5293    -0.2917 H       
  55 H55           -3.6698     1.0314    -0.6038 H       
  56 H56           -4.2775     0.1317     0.8018 H       
  57 H57           -1.3433     3.0374     0.9676 H       
  58 H58           -1.6815     2.1052    -0.5120 H       
  59 H59           -4.4575     2.0405     2.2029 H       
  60 H60           -3.0990     3.1838     2.3281 H       
  61 H61           -4.0111     3.0486     0.8055 H       
  62 H62            3.2730    -1.7368     0.5425 H       
  63 H63            2.4573    -5.6155     2.1757 H       
  64 H64            0.2516    -4.8368     2.9288 H       
  65 H65           -0.4549    -2.5218     2.5062 H       
  66 H66            7.6743    -6.5592     1.2825 H       
  67 H67            6.4761    -7.5122     0.3746 H       
  68 H68            7.6448    -6.4901    -0.4959 H       
@<TRIPOS>BOND
   1    1    2 1
   2    1    3 2
   3    1   23 1
   4    2   19 1
   5    2    5 1
   6    3    4 1
   7    3    7 1
   8    4    5 2
   9    5    6 1
  10    6   25 ar
  11    6   29 ar
  12    7    8 2
  13    7   10 am
  14    9   10 1
  15    9   11 1
  16    9   15 1
  17    9   36 1
  18   10   37 1
  19   11   12 1
  20   11   13 1
  21   11   14 1
  22   12   38 1
  23   12   39 1
  24   12   40 1
  25   13   41 1
  26   13   42 1
  27   13   43 1
  28   14   44 1
  29   14   45 1
  30   14   46 1
  31   15   16 am
  32   15   17 2
  33   16   18 1
  34   16   47 1
  35   18   48 1
  36   18   49 1
  37   18   50 1
  38   19   20 1
  39   19   51 1
  40   19   52 1
  41   20   21 1
  42   20   53 1
  43   20   54 1
  44   21   22 1
  45   21   55 1
  46   21   56 1
  47   22   23 1
  48   22   24 1
  49   23   57 1
  50   23   58 1
  51   24   59 1
  52   24   60 1
  53   24   61 1
  54   25   26 ar
  55   25   62 1
  56   26   27 ar
  57   26   30 1
  58   27   28 ar
  59   27   63 1
  60   28   29 ar
  61   28   64 1
  62   29   65 1
  63   30   31 1
  64   30   32 2
  65   31   34 1
  66   32   33 1
  67   33   34 2
  68   34   35 1
  69   35   66 1
  70   35   67 1
  71   35   68 1

#	End of record

