#	Name: ASD04840053
#	Creating user name:	WinNT
#	Creation time:	15. 06. 2019 20:52

#	Modifying user name:	WinNT
#	Modification time:	15. 06. 2019 20:52

#	Program:	/corina/corina34_cracker 3.40 0067  02.08.2006

@<TRIPOS>MOLECULE
ASD04840053
  38   39    0    0    0
SMALL
NO_CHARGES


@<TRIPOS>ATOM
   1 C1             0.3447     0.7752    -0.0206 C.ar    
   2 C2             0.5468    -0.5971    -0.0686 C.ar    
   3 C3             1.8212    -1.1181    -0.1231 C.ar    
   4 C4             2.9176    -0.2624    -0.1308 C.ar    
   5 C5             2.7073     1.1280    -0.0824 C.ar    
   6 C6             1.4076     1.6342    -0.0271 C.ar    
   7 N7             4.2786    -0.4658    -0.1788 N.pl3   
   8 C8             4.9296     0.7376    -0.1627 C.2     
   9 C9             4.0382     1.7396    -0.1050 C.2     
  10 C10            4.3479     3.2140    -0.0702 C.3     
  11 C11            4.5718     3.7219    -1.4960 C.3     
  12 P12            3.0105     3.6161    -2.4310 P.3     
  13 O13            3.0960     4.4755    -3.6329 O.2     
  14 O14            2.7556     2.0908    -2.8790 O.3     
  15 O15            1.7935     4.1129    -1.5014 O.3     
  16 C16            4.9323    -1.7756    -0.2379 C.3     
  17 C17            6.4259     0.9123    -0.2031 C.3     
  18 P18            5.1317     5.4560    -1.4424 P.3     
  19 O19            6.3992     5.5420    -0.6833 O.2     
  20 O20            5.3673     5.9905    -2.9427 O.3     
  21 O21            4.0115     6.3595    -0.7206 O.3     
  22 H22           -0.6609     1.1674     0.0177 H       
  23 H23           -0.3033    -1.2632    -0.0627 H       
  24 H24            1.9683    -2.1874    -0.1595 H       
  25 H25            1.2425     2.7008     0.0101 H       
  26 H26            3.5122     3.7503     0.3794 H       
  27 H27            5.2480     3.3824     0.5210 H       
  28 H28            5.3302     3.1102    -1.9847 H       
  29 H29            2.5909     1.4867    -2.1421 H       
  30 H30            0.9298     4.0835    -1.9353 H       
  31 H31            5.0631    -2.0697    -1.2793 H       
  32 H32            5.9060    -1.7179     0.2484 H       
  33 H33            4.3140    -2.5136     0.2731 H       
  34 H34            6.7553     0.9855    -1.2395 H       
  35 H35            6.7001     1.8224     0.3305 H       
  36 H36            6.9047     0.0552     0.2706 H       
  37 H37            5.6669     6.9087    -2.9906 H       
  38 H38            3.1527     6.3506    -1.1649 H       
@<TRIPOS>BOND
   1    1    2 ar
   2    1    6 ar
   3    1   22 1
   4    2    3 ar
   5    2   23 1
   6    3    4 ar
   7    3   24 1
   8    4    5 ar
   9    4    7 1
  10    5    6 ar
  11    5    9 1
  12    6   25 1
  13    7    8 1
  14    7   16 1
  15    8    9 2
  16    8   17 1
  17    9   10 1
  18   10   11 1
  19   10   26 1
  20   10   27 1
  21   11   12 1
  22   11   18 1
  23   11   28 1
  24   12   13 2
  25   12   14 1
  26   12   15 1
  27   14   29 1
  28   15   30 1
  29   16   31 1
  30   16   32 1
  31   16   33 1
  32   17   34 1
  33   17   35 1
  34   17   36 1
  35   18   19 2
  36   18   20 1
  37   18   21 1
  38   20   37 1
  39   21   38 1

#	End of record

