#	Name: ASD01812424
#	Creating user name:	WinNT
#	Creation time:	15. 06. 2019 19:28

#	Modifying user name:	WinNT
#	Modification time:	15. 06. 2019 19:28

#	Program:	/corina/corina34_cracker 3.40 0067  02.08.2006

@<TRIPOS>MOLECULE
ASD01812424
  53   56    0    0    0
SMALL
NO_CHARGES


@<TRIPOS>ATOM
   1 C1            -0.0183     1.4531     0.0252 C.ar    
   2 C2            -0.0845     0.1338     0.4306 C.ar    
   3 C3             1.0776    -0.5905     0.6217 C.ar    
   4 C4             2.3062     0.0015     0.4060 C.ar    
   5 C5             2.3822     1.3291    -0.0035 C.ar    
   6 C6             1.2128     2.0558    -0.1917 C.ar    
   7 N7             3.6442     1.8925    -0.2174 N.3     
   8 C8             3.6084     3.3591    -0.1802 C.3     
   9 C9             2.4845     3.8451    -1.1047 C.3     
  10 O10            1.2436     3.3601    -0.5813 O.3     
  11 C11            4.6253     1.3654     0.7405 C.3     
  12 C12            5.9922     1.9058     0.4082 C.ar    
  13 C13            6.7616     1.2920    -0.5652 C.ar    
  14 C14            6.4767     3.0196     1.0722 C.ar    
  15 C15            7.7327     3.5155     0.7664 C.ar    
  16 C16            8.5032     2.8984    -0.2022 C.ar    
  17 C17            8.0174     1.7890    -0.8700 C.ar    
  18 N18            3.4988     6.0234    -1.6917 N.am    
  19 C19            2.4690     5.3516    -1.1398 C.2     
  20 C20            3.4837     7.4879    -1.7259 C.3     
  21 C21            4.3598     7.9802    -2.8796 C.3     
  22 C22            4.3441     9.5097    -2.9153 C.3     
  23 C23            4.8870    10.0563    -1.5934 C.3     
  24 C24            4.0109     9.5640    -0.4397 C.3     
  25 C25            4.0267     8.0345    -0.4040 C.3     
  26 O26            3.8527     7.4696    -4.1142 O.3     
  27 O27            1.5298     5.9594    -0.6715 O.2     
  28 F28            6.2874     0.2080    -1.2173 F       
  29 F29            5.7240     3.6228     2.0181 F       
  30 Br30          10.2185     3.5764    -0.6192 Br      
  31 H31           -0.9275     2.0155    -0.1277 H       
  32 H32           -1.0444    -0.3318     0.5986 H       
  33 H33            1.0243    -1.6209     0.9405 H       
  34 H34            3.2115    -0.5680     0.5560 H       
  35 H35            3.4149     3.6947     0.8386 H       
  36 H36            4.5629     3.7573    -0.5242 H       
  37 H37            2.6383     3.4544    -2.1106 H       
  38 H38            4.3489     1.6718     1.7494 H       
  39 H39            4.6409     0.2770     0.6828 H       
  40 H40            8.1107     4.3847     1.2841 H       
  41 H41            8.6178     1.3102    -1.6294 H       
  42 H42            4.2500     5.5372    -2.0662 H       
  43 H43            2.4616     7.8375    -1.8711 H       
  44 H44            5.3820     7.6307    -2.7344 H       
  45 H45            4.9682     9.8604    -3.7372 H       
  46 H46            3.3219     9.8592    -3.0605 H       
  47 H47            5.9092     9.7068    -1.4482 H       
  48 H48            4.8758    11.1459    -1.6189 H       
  49 H49            4.3978     9.9535     0.5020 H       
  50 H50            2.9888     9.9136    -0.5849 H       
  51 H51            3.4026     7.6839     0.4179 H       
  52 H52            5.0489     7.6850    -0.2588 H       
  53 H53            4.3605     7.7422    -4.8907 H       
@<TRIPOS>BOND
   1    1    2 ar
   2    1    6 ar
   3    1   31 1
   4    2    3 ar
   5    2   32 1
   6    3    4 ar
   7    3   33 1
   8    4    5 ar
   9    4   34 1
  10    5    7 1
  11    5    6 ar
  12    6   10 1
  13    7   11 1
  14    7    8 1
  15    8    9 1
  16    8   35 1
  17    8   36 1
  18    9   10 1
  19    9   19 1
  20    9   37 1
  21   11   12 1
  22   11   38 1
  23   11   39 1
  24   12   14 ar
  25   12   13 ar
  26   13   17 ar
  27   13   28 1
  28   14   15 ar
  29   14   29 1
  30   15   16 ar
  31   15   40 1
  32   16   17 ar
  33   16   30 1
  34   17   41 1
  35   18   19 am
  36   18   20 1
  37   18   42 1
  38   19   27 2
  39   20   21 1
  40   20   25 1
  41   20   43 1
  42   21   22 1
  43   21   26 1
  44   21   44 1
  45   22   23 1
  46   22   45 1
  47   22   46 1
  48   23   24 1
  49   23   47 1
  50   23   48 1
  51   24   25 1
  52   24   49 1
  53   24   50 1
  54   25   51 1
  55   25   52 1
  56   26   53 1

#	End of record

