#	Name: ASD00431087
#	Creating user name:	WinNT
#	Creation time:	15. 06. 2019 18:35

#	Modifying user name:	WinNT
#	Modification time:	15. 06. 2019 18:35

#	Program:	/corina/corina34_cracker 3.40 0067  02.08.2006

@<TRIPOS>MOLECULE
ASD00431087
  33   36    0    0    0
SMALL
NO_CHARGES


@<TRIPOS>ATOM
   1 C1            -0.0162     1.3410     0.0094 C.2     
   2 N2             0.0021    -0.0041     0.0020 N.am    
   3 C3             1.2637    -0.4708    -0.0125 C.2     
   4 C4             2.1916     0.6799    -0.0152 C.ar    
   5 C5             3.5709     0.8108    -0.0273 C.ar    
   6 C6             4.1413     2.0742    -0.0256 C.ar    
   7 C7             3.3438     3.2031    -0.0119 C.ar    
   8 C8             1.9626     3.0875     0.0003 C.ar    
   9 C9             1.3783     1.8310    -0.0013 C.ar    
  10 O10           -1.0118     2.0364     0.0181 O.2     
  11 O11            1.5863    -1.6416    -0.0213 O.2     
  12 C12           -1.1944    -0.8494     0.0093 C.3     
  13 C13           -1.2267    -1.7428    -1.2488 C.3     
  14 C14           -0.5322    -3.0309    -0.7583 C.3     
  15 C15           -0.7703    -3.0648     0.7362 C.ar    
  16 C16           -0.6617    -4.1097     1.6385 C.ar    
  17 C17           -0.9330    -3.9029     2.9777 C.ar    
  18 C18           -1.3138    -2.6482     3.4187 C.ar    
  19 C19           -1.4219    -1.6055     2.5199 C.ar    
  20 C20           -1.1508    -1.8113     1.1773 C.ar    
  21 Br21          -0.7845    -5.3333     4.2056 Br      
  22 H22            4.1990    -0.0677    -0.0376 H       
  23 H23            5.2164     2.1772    -0.0346 H       
  24 H24            3.8001     4.1820    -0.0103 H       
  25 H25            1.3444     3.9730     0.0113 H       
  26 H26           -2.0920    -0.2329     0.0586 H       
  27 H27           -2.2533    -1.9476    -1.5523 H       
  28 H28           -0.6646    -1.2856    -2.0632 H       
  29 H29           -0.9784    -3.9052    -1.2323 H       
  30 H30            0.5362    -2.9888    -0.9702 H       
  31 H31           -0.3645    -5.0894     1.2945 H       
  32 H32           -1.5266    -2.4844     4.4648 H       
  33 H33           -1.7196    -0.6264     2.8648 H       
@<TRIPOS>BOND
   1    1    2 am
   2    1    9 1
   3    1   10 2
   4    2    3 am
   5    2   12 1
   6    3    4 1
   7    3   11 2
   8    4    5 ar
   9    4    9 ar
  10    5    6 ar
  11    5   22 1
  12    6    7 ar
  13    6   23 1
  14    7    8 ar
  15    7   24 1
  16    8    9 ar
  17    8   25 1
  18   12   13 1
  19   12   20 1
  20   12   26 1
  21   13   14 1
  22   13   27 1
  23   13   28 1
  24   14   15 1
  25   14   29 1
  26   14   30 1
  27   15   16 ar
  28   15   20 ar
  29   16   17 ar
  30   16   31 1
  31   17   18 ar
  32   17   21 1
  33   18   19 ar
  34   18   32 1
  35   19   20 ar
  36   19   33 1

#	End of record

