#	Name: ASD01915507
#	Creating user name:	WinNT
#	Creation time:	15. 06. 2019 20:05

#	Modifying user name:	WinNT
#	Modification time:	15. 06. 2019 20:05

#	Program:	/corina/corina34_cracker 3.40 0067  02.08.2006

@<TRIPOS>MOLECULE
ASD01915507
  41   44    0    0    0
SMALL
NO_CHARGES


@<TRIPOS>ATOM
   1 C1            -0.0042     1.4686     0.2350 C.2     
   2 N2             0.0662     0.1192    -0.0301 N.pl3   
   3 C3            -1.1429    -0.6636    -0.3131 C.3     
   4 C4            -2.3280    -0.0486     0.4294 C.3     
   5 N5            -2.4044     1.3988     0.2637 N.am    
   6 C6            -1.2935     2.1742     0.2864 C.2     
   7 C7             1.2763     1.9058     0.4261 C.2     
   8 C8             2.0758     0.7650     0.2738 C.2     
   9 N9             1.2865    -0.2503     0.0108 N.2     
  10 C10            3.5774     0.7131     0.3906 C.3     
  11 O11            4.0777     2.0190     0.6844 O.3     
  12 C12            5.4236     2.1474     0.8227 C.ar    
  13 C13           -3.6531     1.9998     0.0771 C.ar    
  14 O14           -1.3590     3.3874     0.3468 O.2     
  15 C15            5.9776     3.3869     1.1082 C.ar    
  16 C16            6.2452     1.0382     0.6842 C.ar    
  17 C17            7.6130     1.1714     0.8252 C.ar    
  18 C18            8.1632     2.4088     1.1041 C.ar    
  19 C19            7.3460     3.5147     1.2483 C.ar    
  20 C20           -4.5851     2.0025     1.1075 C.ar    
  21 C21           -5.8177     2.5965     0.9214 C.ar    
  22 C22           -6.1264     3.1886    -0.2894 C.ar    
  23 C23           -5.2006     3.1879    -1.3194 C.ar    
  24 C24           -3.9617     2.6000    -1.1361 C.ar    
  25 F25           -5.5051     3.7667    -2.5015 F       
  26 H26           -1.3402    -0.6536    -1.3850 H       
  27 H27           -0.9977    -1.6909     0.0210 H       
  28 H28           -3.2488    -0.4952     0.0541 H       
  29 H29           -2.2354    -0.2772     1.4911 H       
  30 H30            1.6014     2.9119     0.6463 H       
  31 H31            3.8561     0.0285     1.1916 H       
  32 H32            4.0031     0.3641    -0.5502 H       
  33 H33            5.3397     4.2511     1.2206 H       
  34 H34            5.8159     0.0714     0.4667 H       
  35 H35            8.2530     0.3081     0.7178 H       
  36 H36            9.2328     2.5108     1.2140 H       
  37 H37            7.7782     4.4803     1.4658 H       
  38 H38           -4.3457     1.5398     2.0535 H       
  39 H39           -6.5419     2.5983     1.7226 H       
  40 H40           -7.0913     3.6521    -0.4323 H       
  41 H41           -3.2392     2.5995    -1.9389 H       
@<TRIPOS>BOND
   1    1    2 1
   2    1    7 2
   3    1    6 1
   4    2    3 1
   5    2    9 1
   6    3    4 1
   7    3   26 1
   8    3   27 1
   9    4    5 1
  10    4   28 1
  11    4   29 1
  12    5    6 am
  13    5   13 1
  14    6   14 2
  15    7    8 1
  16    7   30 1
  17    8    9 2
  18    8   10 1
  19   10   11 1
  20   10   31 1
  21   10   32 1
  22   11   12 1
  23   12   15 ar
  24   12   16 ar
  25   13   20 ar
  26   13   24 ar
  27   15   19 ar
  28   15   33 1
  29   16   17 ar
  30   16   34 1
  31   17   18 ar
  32   17   35 1
  33   18   19 ar
  34   18   36 1
  35   19   37 1
  36   20   21 ar
  37   20   38 1
  38   21   22 ar
  39   21   39 1
  40   22   23 ar
  41   22   40 1
  42   23   24 ar
  43   23   25 1
  44   24   41 1

#	End of record

