#	Name: ASD03091249
#	Creating user name:	WinNT
#	Creation time:	15. 06. 2019 20:30

#	Modifying user name:	WinNT
#	Modification time:	15. 06. 2019 20:30

#	Program:	/corina/corina34_cracker 3.40 0067  02.08.2006

@<TRIPOS>MOLECULE
ASD03091249
  65   70    0    0    0
SMALL
NO_CHARGES


@<TRIPOS>ATOM
   1 N1             0.6900     1.4455    -0.1327 N.2     
   2 C2             0.4492     0.1613    -0.0804 C.2     
   3 N3             1.4325    -0.7772     0.0811 N.am    
   4 C4             2.7272    -0.3997     0.1954 C.2     
   5 C5             3.0217     1.0399     0.1390 C.ar    
   6 C6             4.3219     1.5278     0.2472 C.ar    
   7 C7             4.5417     2.8936     0.1873 C.ar    
   8 C8             3.4727     3.7743     0.0202 C.ar    
   9 C9             2.1931     3.3110    -0.0869 C.ar    
  10 C10            1.9418     1.9365    -0.0297 C.ar    
  11 O11            3.6142    -1.2208     0.3400 O.2     
  12 C12            1.0812    -2.1986     0.1309 C.3     
  13 C13            0.9522    -2.7423    -1.2934 C.3     
  14 C14            0.7376    -4.2638    -1.3549 C.3     
  15 C15           -0.2654    -3.9974    -2.4897 C.3     
  16 C16           -0.4611    -2.5983    -1.8821 C.3     
  17 C17            2.0593    -2.2415    -2.2231 C.3     
  18 O18            2.1590    -0.8195    -2.1223 O.3     
  19 C19           -0.9504    -0.2983    -0.2009 C.ar    
  20 C20           -1.4951    -1.1471     0.7643 C.ar    
  21 C21           -2.8021    -1.5724     0.6458 C.ar    
  22 C22           -3.5725    -1.1600    -0.4269 C.ar    
  23 C23           -3.0388    -0.3188    -1.3871 C.ar    
  24 C24           -1.7351     0.1189    -1.2773 C.ar    
  25 N25            8.7427     3.5798    -0.2737 N.3     
  26 C26            8.1933     2.8351     0.8696 C.3     
  27 C27            6.8015     2.3118     0.5511 C.3     
  28 N28            5.8424     3.3931     0.2953 N.3     
  29 C29            6.2194     4.1456    -0.9094 C.3     
  30 C30            7.0537     5.3618    -0.5362 C.3     
  31 C31            8.4682     5.0154    -0.1170 C.3     
  32 C32            8.3990     3.0806    -1.5879 C.3     
  33 C33            6.9138     3.2110    -1.8831 C.3     
  34 H34            5.1505     0.8473     0.3769 H       
  35 H35            3.6600     4.8370    -0.0247 H       
  36 H36            1.3757     4.0051    -0.2152 H       
  37 H37            1.8606    -2.7471     0.6600 H       
  38 H38            0.1325    -2.3204     0.6536 H       
  39 H39            1.6211    -4.8169    -1.6739 H       
  40 H40            0.2802    -4.6770    -0.4559 H       
  41 H41            0.1895    -3.9835    -3.4802 H       
  42 H42           -1.1565    -4.6232    -2.4408 H       
  43 H43           -1.2463    -2.5561    -1.1272 H       
  44 H44           -0.5455    -1.8068    -2.6267 H       
  45 H45            3.0083    -2.6935    -1.9346 H       
  46 H46            1.8231    -2.5172    -3.2509 H       
  47 H47            2.8426    -0.4322    -2.6859 H       
  48 H48           -0.8945    -1.4703     1.6017 H       
  49 H49           -3.2247    -2.2291     1.3918 H       
  50 H50           -4.5949    -1.4965    -0.5154 H       
  51 H51           -3.6454    -0.0008    -2.2222 H       
  52 H52           -1.3211     0.7791    -2.0251 H       
  53 H53            8.8489     1.9952     1.0994 H       
  54 H54            8.1394     3.4950     1.7354 H       
  55 H55            6.8575     1.6737    -0.3309 H       
  56 H56            6.4468     1.7170     1.3929 H       
  57 H57            5.3049     4.4963    -1.3877 H       
  58 H58            7.0978     6.0321    -1.3946 H       
  59 H59            6.5633     5.8830     0.2860 H       
  60 H60            8.6076     5.2924     0.9279 H       
  61 H61            9.1697     5.5809    -0.7304 H       
  62 H62            8.9588     3.6413    -2.3365 H       
  63 H63            8.6812     2.0297    -1.6518 H       
  64 H64            6.4520     2.2258    -1.8190 H       
  65 H65            6.7861     3.5952    -2.8951 H       
@<TRIPOS>BOND
   1    1    2 2
   2    1   10 1
   3    2    3 1
   4    2   19 1
   5    3    4 am
   6    3   12 1
   7    4    5 1
   8    4   11 2
   9    5    6 ar
  10    5   10 ar
  11    6    7 ar
  12    6   34 1
  13    7    8 ar
  14    7   28 1
  15    8    9 ar
  16    8   35 1
  17    9   10 ar
  18    9   36 1
  19   12   13 1
  20   12   37 1
  21   12   38 1
  22   13   14 1
  23   13   16 1
  24   13   17 1
  25   14   15 1
  26   14   39 1
  27   14   40 1
  28   15   16 1
  29   15   41 1
  30   15   42 1
  31   16   43 1
  32   16   44 1
  33   17   18 1
  34   17   45 1
  35   17   46 1
  36   18   47 1
  37   19   20 ar
  38   19   24 ar
  39   20   21 ar
  40   20   48 1
  41   21   22 ar
  42   21   49 1
  43   22   23 ar
  44   22   50 1
  45   23   24 ar
  46   23   51 1
  47   24   52 1
  48   25   26 1
  49   25   31 1
  50   25   32 1
  51   26   27 1
  52   26   53 1
  53   26   54 1
  54   27   28 1
  55   27   55 1
  56   27   56 1
  57   28   29 1
  58   29   30 1
  59   29   33 1
  60   29   57 1
  61   30   31 1
  62   30   58 1
  63   30   59 1
  64   31   60 1
  65   31   61 1
  66   32   33 1
  67   32   62 1
  68   32   63 1
  69   33   64 1
  70   33   65 1

#	End of record

