#	Name: ASD04880464
#	Creating user name:	WinNT
#	Creation time:	15. 06. 2019 20:53

#	Modifying user name:	WinNT
#	Modification time:	15. 06. 2019 20:53

#	Program:	/corina/corina34_cracker 3.40 0067  02.08.2006

@<TRIPOS>MOLECULE
ASD04880464
  48   50    0    0    0
SMALL
NO_CHARGES


@<TRIPOS>ATOM
   1 C1            -0.0167     1.3827     0.0096 C.ar    
   2 C2             0.0021    -0.0041     0.0020 C.ar    
   3 C3            -1.1810    -0.7132     0.0090 C.ar    
   4 C4            -2.4017    -0.0345     0.0243 C.ar    
   5 C5            -2.4203     1.3630     0.0325 C.ar    
   6 C6            -1.2308     2.0665     0.0307 C.ar    
   7 O7             1.1521     2.0766     0.0022 O.3     
   8 C8             2.3599     1.3130    -0.0134 C.3     
   9 C9            -3.6675    -0.7904     0.0314 C.2     
  10 C10           -3.7835    -2.2979     0.0234 C.3     
  11 C11           -5.3036    -2.5534     0.0363 C.3     
  12 N12           -5.8811    -1.2000     0.0501 N.am    
  13 N13           -4.8451    -0.2682     0.0510 N.2     
  14 C14           -7.1970    -0.9092     0.0640 C.2     
  15 O15           -8.0160    -1.8042     0.0660 O.2     
  16 C16           -7.6511     0.5277     0.0771 C.3     
  17 O17           -9.0754     0.5781    -0.0269 O.3     
  18 C18           -9.5582     0.6410    -1.3704 C.3     
  19 C19           -6.0926     1.9821     1.3885 C.ar    
  20 O20           -1.2452     3.4263     0.0391 O.3     
  21 C21           -2.5252     4.0616     0.0495 C.3     
  22 C22           -7.2180     1.1796     1.3650 C.ar    
  23 C23           -7.9468     0.9751     2.5218 C.ar    
  24 C24           -7.5509     1.5728     3.7033 C.ar    
  25 C25           -6.4239     2.3767     3.7281 C.ar    
  26 C26           -5.6948     2.5809     2.5688 C.ar    
  27 F27           -6.0362     2.9619     4.8824 F       
  28 H28            0.9453    -0.5300    -0.0098 H       
  29 H29           -1.1635    -1.7930     0.0024 H       
  30 H30           -3.3619     1.8918     0.0444 H       
  31 H31            3.2161     1.9874    -0.0180 H       
  32 H32            2.4008     0.6797     0.8728 H       
  33 H33            2.3838     0.6893    -0.9070 H       
  34 H34           -3.3340    -2.7111    -0.8796 H       
  35 H35           -3.3168    -2.7220     0.9125 H       
  36 H36           -5.6097    -3.0920    -0.8605 H       
  37 H37           -5.5926    -3.1029     0.9323 H       
  38 H38           -7.2063     1.0570    -0.7655 H       
  39 H39           -9.1685     1.5362    -1.8550 H       
  40 H40           -9.2269    -0.2417    -1.9172 H       
  41 H41          -10.6476     0.6766    -1.3636 H       
  42 H42           -5.5215     2.1377     0.4851 H       
  43 H43           -2.3938     5.1436     0.0554 H       
  44 H44           -3.0836     3.7682    -0.8395 H       
  45 H45           -3.0745     3.7574     0.9404 H       
  46 H46           -8.8260     0.3482     2.5021 H       
  47 H47           -8.1205     1.4131     4.6068 H       
  48 H48           -4.8157     3.2081     2.5869 H       
@<TRIPOS>BOND
   1    1    2 ar
   2    1    7 1
   3    1    6 ar
   4    2    3 ar
   5    2   28 1
   6    3    4 ar
   7    3   29 1
   8    4    5 ar
   9    4    9 1
  10    5    6 ar
  11    5   30 1
  12    6   20 1
  13    7    8 1
  14    8   31 1
  15    8   32 1
  16    8   33 1
  17    9   10 1
  18    9   13 2
  19   10   11 1
  20   10   34 1
  21   10   35 1
  22   11   12 1
  23   11   36 1
  24   11   37 1
  25   12   13 1
  26   12   14 am
  27   14   15 2
  28   14   16 1
  29   16   17 1
  30   16   22 1
  31   16   38 1
  32   17   18 1
  33   18   39 1
  34   18   40 1
  35   18   41 1
  36   19   22 ar
  37   19   26 ar
  38   19   42 1
  39   20   21 1
  40   21   43 1
  41   21   44 1
  42   21   45 1
  43   22   23 ar
  44   23   24 ar
  45   23   46 1
  46   24   25 ar
  47   24   47 1
  48   25   26 ar
  49   25   27 1
  50   26   48 1

#	End of record

