#	Name: ASD01140321
#	Creating user name:	WinNT
#	Creation time:	15. 06. 2019 19:00

#	Modifying user name:	WinNT
#	Modification time:	15. 06. 2019 19:00

#	Program:	/corina/corina34_cracker 3.40 0067  02.08.2006

@<TRIPOS>MOLECULE
ASD01140321
  38   40    0    0    0
SMALL
NO_CHARGES


@<TRIPOS>ATOM
   1 C1            -0.1028     1.5591    -0.1847 C.2     
   2 C2            -0.2096     0.2050    -0.1180 C.2     
   3 C3             0.9475    -0.5781     0.0414 C.2     
   4 C4             2.1609     0.0101     0.1284 C.2     
   5 C5             1.1703     2.1581    -0.0928 C.2     
   6 N6             1.5603     3.4242    -0.1269 N.2     
   7 N7             2.2809     1.3698     0.0631 N.pl3   
   8 C8             3.3630     2.2022     0.1232 C.2     
   9 C9             2.8953     3.4761     0.0021 C.2     
  10 C10            3.7203     4.7096     0.0121 C.ar    
  11 C11            3.2900     5.8328     0.7162 C.ar    
  12 C12            4.0601     6.9779     0.7230 C.ar    
  13 C13            5.2581     7.0135     0.0326 C.ar    
  14 C14            5.6914     5.9009    -0.6696 C.ar    
  15 C15            4.9299     4.7468    -0.6774 C.ar    
  16 C16            4.8025     1.7888     0.2905 C.3     
  17 C17            5.3839     1.4380    -1.0549 C.2     
  18 N18            6.6673     1.0377    -1.1507 N.am    
  19 O19            4.6970     1.5160    -2.0513 O.2     
  20 C20            7.2325     0.6967    -2.4585 C.3     
  21 C21            7.4971     0.9435     0.0530 C.3     
  22 F22            0.8456    -1.9236     0.1081 F       
  23 H23            5.8574     7.9119     0.0407 H       
  24 F24            6.8621     5.9414    -1.3426 F       
  25 H25           -0.9846     2.1697    -0.3114 H       
  26 H26           -1.1787    -0.2668    -0.1867 H       
  27 H27            3.0437    -0.5998     0.2511 H       
  28 H28            2.3548     5.8071     1.2557 H       
  29 H29            3.7265     7.8484     1.2684 H       
  30 H30            5.2700     3.8777    -1.2209 H       
  31 H31            5.3683     2.6116     0.7275 H       
  32 H32            4.8573     0.9208     0.9475 H       
  33 H33            7.6677     1.5882    -2.9099 H       
  34 H34            8.0055    -0.0617    -2.3337 H       
  35 H35            6.4449     0.3096    -3.1050 H       
  36 H36            6.9090     1.2345     0.9234 H       
  37 H37            7.8443    -0.0824     0.1756 H       
  38 H38            8.3553     1.6084    -0.0444 H       
@<TRIPOS>BOND
   1    1    2 2
   2    1    5 1
   3    1   25 1
   4    2    3 1
   5    2   26 1
   6    3    4 2
   7    3   22 1
   8    4    7 1
   9    4   27 1
  10    5    7 1
  11    5    6 2
  12    6    9 1
  13    7    8 1
  14    8    9 2
  15    8   16 1
  16    9   10 1
  17   10   11 ar
  18   10   15 ar
  19   11   12 ar
  20   11   28 1
  21   12   13 ar
  22   12   29 1
  23   13   14 ar
  24   13   23 1
  25   14   15 ar
  26   14   24 1
  27   15   30 1
  28   16   17 1
  29   16   31 1
  30   16   32 1
  31   17   18 am
  32   17   19 2
  33   18   20 1
  34   18   21 1
  35   20   33 1
  36   20   34 1
  37   20   35 1
  38   21   36 1
  39   21   37 1
  40   21   38 1

#	End of record

