#	Name: ASD01320095
#	Creating user name:	WinNT
#	Creation time:	15. 06. 2019 19:16

#	Modifying user name:	WinNT
#	Modification time:	15. 06. 2019 19:16

#	Program:	/corina/corina34_cracker 3.40 0067  02.08.2006

@<TRIPOS>MOLECULE
ASD01320095
  53   54    0    0    0
SMALL
NO_CHARGES


@<TRIPOS>ATOM
   1 C1            -2.8368     0.7195     0.0724 C.ar    
   2 O2            -3.1823    -0.5918     0.1318 O.3     
   3 C3            -1.5055     1.0776    -0.1075 C.ar    
   4 O4            -1.1808     7.4567    -0.2139 O.2     
   5 C5            -1.1498     2.4060    -0.1680 C.ar    
   6 O6            -3.2930     8.0943     0.0582 O.3     
   7 C7            -2.1313     3.3970    -0.0485 C.ar    
   8 O8            -3.3345     9.1933    -2.3054 O.2     
   9 C9            -3.4704     3.0310     0.1321 C.ar    
  10 O10           -2.4269    11.1352    -1.7681 O.3     
  11 C11           -3.8162     1.6997     0.1860 C.ar    
  12 O12           -1.5155    10.5879     2.1775 O.2     
  13 C13           -1.7571     4.8168    -0.1118 C.2     
  14 O14           -2.0626     9.5647     4.0583 O.3     
  15 C15           -2.7061     5.7712     0.0038 C.2     
  16 O16           -3.3521    11.6902     0.7579 O.3     
  17 C17           -2.3451     7.1409    -0.0573 C.2     
  18 O18           -5.4575    12.3317     1.0711 O.2     
  19 C19           -2.8580     9.4536    -0.0126 C.3     
  20 O20           -3.3506    20.3544     1.3887 O.3     
  21 C21           -2.8907     9.9175    -1.4461 C.2     
  22 C22           -3.7872    10.3309     0.8287 C.3     
  23 C23           -3.7539     9.8599     2.2840 C.3     
  24 C24           -2.3620    10.0310     2.8357 C.2     
  25 C25           -4.2883    12.6436     0.9457 C.2     
  26 C26           -3.9095    14.0089     0.9970 C.2     
  27 C27           -4.8468    14.9634     1.1850 C.2     
  28 C28           -4.4541    16.3785     1.2381 C.ar    
  29 C29           -5.4235    17.3696     1.4328 C.ar    
  30 C30           -5.0503    18.6936     1.4823 C.ar    
  31 C31           -3.7134    19.0474     1.3392 C.ar    
  32 C32           -2.7468    18.0671     1.1451 C.ar    
  33 C33           -3.1086    16.7398     1.0999 C.ar    
  34 H34           -3.1665    -0.9626     1.0248 H       
  35 H35           -0.7491     0.3122    -0.1997 H       
  36 H36           -0.1153     2.6831    -0.3071 H       
  37 H37           -4.2314     3.7917     0.2249 H       
  38 H38           -2.4687    11.3885    -2.7004 H       
  39 H39           -4.8495     1.4162     0.3212 H       
  40 H40           -0.7234     5.0971    -0.2509 H       
  41 H41           -1.1567     9.6979     4.3692 H       
  42 H42           -3.7398     5.4909     0.1428 H       
  43 H43           -1.8405     9.5299     0.3708 H       
  44 H44           -3.1351    20.6694     2.2772 H       
  45 H45           -4.8046    10.2546     0.4453 H       
  46 H46           -4.4537    10.4521     2.8737 H       
  47 H47           -4.0372     8.8085     2.3322 H       
  48 H48           -2.8715    14.2858     0.8857 H       
  49 H49           -5.8847    14.6865     1.2963 H       
  50 H50           -6.4623    17.0959     1.5438 H       
  51 H51           -5.7974    19.4590     1.6321 H       
  52 H52           -1.7097    18.3472     1.0338 H       
  53 H53           -2.3564    15.9786     0.9539 H       
@<TRIPOS>BOND
   1    1    2 1
   2    1    3 ar
   3    1   11 ar
   4    2   34 1
   5    3    5 ar
   6    3   35 1
   7    4   17 2
   8    5    7 ar
   9    5   36 1
  10    6   17 1
  11    6   19 1
  12    7    9 ar
  13    7   13 1
  14    8   21 2
  15    9   11 ar
  16    9   37 1
  17   10   21 1
  18   10   38 1
  19   11   39 1
  20   12   24 2
  21   13   15 2
  22   13   40 1
  23   14   24 1
  24   14   41 1
  25   15   17 1
  26   15   42 1
  27   16   22 1
  28   16   25 1
  29   18   25 2
  30   19   21 1
  31   19   22 1
  32   19   43 1
  33   20   31 1
  34   20   44 1
  35   22   23 1
  36   22   45 1
  37   23   24 1
  38   23   46 1
  39   23   47 1
  40   25   26 1
  41   26   27 2
  42   26   48 1
  43   27   28 1
  44   27   49 1
  45   28   29 ar
  46   28   33 ar
  47   29   30 ar
  48   29   50 1
  49   30   31 ar
  50   30   51 1
  51   31   32 ar
  52   32   33 ar
  53   32   52 1
  54   33   53 1

#	End of record

