#	Name: ASD01410016
#	Creating user name:	WinNT
#	Creation time:	15. 06. 2019 19:16

#	Modifying user name:	WinNT
#	Modification time:	15. 06. 2019 19:16

#	Program:	/corina/corina34_cracker 3.40 0067  02.08.2006

@<TRIPOS>MOLECULE
ASD01410016
  33   34    0    0    0
SMALL
NO_CHARGES


@<TRIPOS>ATOM
   1 C1            -0.0177     1.3818    -0.0275 C.ar    
   2 C2             0.0015    -0.0017    -0.0318 C.ar    
   3 C3            -1.1845    -0.7099    -0.0168 C.ar    
   4 C4            -2.3952    -0.0331     0.0028 C.ar    
   5 C5            -2.4124     1.3540     0.0072 C.ar    
   6 C6            -1.2242     2.0586    -0.0026 C.ar    
   7 O7            -3.5632    -0.7282     0.0172 O.3     
   8 C8            -4.7716     0.0342     0.0370 C.3     
   9 C9            -5.9545    -0.8995     0.0509 C.2     
  10 N10           -7.2064    -0.4008     0.0705 N.am    
  11 C11           -8.3046    -1.2627    -0.0294 C.ar    
  12 C12           -9.4760    -0.9783     0.6618 C.ar    
  13 C13          -10.5639    -1.8264     0.5667 C.ar    
  14 C14          -10.4939    -2.9609    -0.2152 C.ar    
  15 C15           -9.3213    -3.2556    -0.9144 C.ar    
  16 C16           -8.2256    -2.3969    -0.8224 C.ar    
  17 O17           -5.7798    -2.0997     0.0444 O.2     
  18 Cl18           1.4740     2.2695    -0.0459 Cl      
  19 C19           -9.2433    -4.4697    -1.7526 C.2     
  20 O20           -8.2224    -4.7240    -2.3598 O.2     
  21 O21          -10.3043    -5.2948    -1.8435 O.3     
  22 H22            0.9444    -0.5283    -0.0474 H       
  23 H23           -1.1691    -1.7898    -0.0205 H       
  24 H24           -3.3541     1.8826     0.0224 H       
  25 H25           -1.2372     3.1385     0.0011 H       
  26 H26           -4.7920     0.6597     0.9295 H       
  27 H27           -4.8175     0.6656    -0.8503 H       
  28 H28           -7.3464     0.5554     0.1537 H       
  29 H29           -9.5368    -0.0919     1.2758 H       
  30 H30          -11.4714    -1.6001     1.1066 H       
  31 H31          -11.3455    -3.6212    -0.2864 H       
  32 H32           -7.3162    -2.6193    -1.3610 H       
  33 H33          -10.2057    -6.0766    -2.4039 H       
@<TRIPOS>BOND
   1    1    2 ar
   2    1   18 1
   3    1    6 ar
   4    2    3 ar
   5    2   22 1
   6    3    4 ar
   7    3   23 1
   8    4    5 ar
   9    4    7 1
  10    5    6 ar
  11    5   24 1
  12    6   25 1
  13    7    8 1
  14    8    9 1
  15    8   26 1
  16    8   27 1
  17    9   10 am
  18    9   17 2
  19   10   11 1
  20   10   28 1
  21   11   12 ar
  22   11   16 ar
  23   12   13 ar
  24   12   29 1
  25   13   14 ar
  26   13   30 1
  27   14   15 ar
  28   14   31 1
  29   15   16 ar
  30   15   19 1
  31   16   32 1
  32   19   20 2
  33   19   21 1
  34   21   33 1

#	End of record

