#	Name: ASD01914028
#	Creating user name:	WinNT
#	Creation time:	15. 06. 2019 20:02

#	Modifying user name:	WinNT
#	Modification time:	15. 06. 2019 20:02

#	Program:	/corina/corina34_cracker 3.40 0067  02.08.2006

@<TRIPOS>MOLECULE
ASD01914028
  51   53    0    0    0
SMALL
NO_CHARGES


@<TRIPOS>ATOM
   1 C1            -0.0167     1.3784     0.0096 C.ar    
   2 C2             0.0021    -0.0041     0.0020 C.ar    
   3 C3             1.2074    -0.6814    -0.0131 C.ar    
   4 C4             2.3802     1.4093    -0.0131 C.ar    
   5 C5             1.1695     2.0865     0.0021 C.ar    
   6 O6             3.5484     2.1036    -0.0201 O.3     
   7 C7             4.7565     1.3405    -0.0357 C.3     
   8 C8             5.9399     2.2735    -0.0414 C.ar    
   9 N9             7.1606     1.7732    -0.0557 N.ar    
  10 C10            8.2282     2.5442    -0.0613 C.ar    
  11 C11            8.1003     3.9335    -0.0517 C.ar    
  12 C12            6.8174     4.4944    -0.0366 C.ar    
  13 C13            5.7285     3.6408    -0.0374 C.ar    
  14 C14            9.2990     4.7988    -0.0571 C.2     
  15 N15           10.5284     4.2469    -0.0712 N.am    
  16 O16            9.1757     6.0080    -0.0486 O.2     
  17 C17           11.7163     5.1043    -0.0765 C.3     
  18 C18            2.3963     0.0221    -0.0207 C.ar    
  19 C19           12.8895     4.3466    -0.7011 C.3     
  20 C20           12.0689     5.4960     1.3598 C.3     
  21 C21           14.1301     5.2421    -0.7066 C.3     
  22 C22           15.3033     4.4843    -1.3312 C.3     
  23 C23           15.5886     3.2227    -0.5140 C.3     
  24 C24           14.3481     2.3272    -0.5085 C.3     
  25 C25           13.1749     3.0850     0.1161 C.3     
  26 H26           -0.9595     1.9052     0.0169 H       
  27 H27           -0.9263    -0.5558     0.0083 H       
  28 H28            1.2194    -1.7613    -0.0187 H       
  29 H29            1.1543     3.1664     0.0077 H       
  30 H30            4.7976     0.7070     0.8504 H       
  31 H31            4.7810     0.7171    -0.9295 H       
  32 H32            9.2113     2.0972    -0.0730 H       
  33 H33            6.6813     5.5658    -0.0288 H       
  34 H34            4.7241     4.0376    -0.0259 H       
  35 H35           10.6268     3.2819    -0.0780 H       
  36 H36           11.5130     6.0031    -0.6587 H       
  37 H37            3.3375    -0.5074    -0.0325 H       
  38 H38           12.6383     4.0675    -1.7244 H       
  39 H39           12.2721     4.5973     1.9421 H       
  40 H40           12.9526     6.1340     1.3559 H       
  41 H41           11.2330     6.0359     1.8048 H       
  42 H42           13.9268     6.1408    -1.2888 H       
  43 H43           14.3813     5.5211     0.3167 H       
  44 H44           15.0521     4.2052    -2.3545 H       
  45 H45           16.1871     5.1223    -1.3351 H       
  46 H46           16.4245     2.6828    -0.9589 H       
  47 H47           15.8398     3.5018     0.5093 H       
  48 H48           14.0969     2.0481    -1.5318 H       
  49 H49           14.5514     1.4284     0.0738 H       
  50 H50           13.4261     3.3640     1.1394 H       
  51 H51           12.2911     2.4470     0.1201 H       
@<TRIPOS>BOND
   1    1    2 ar
   2    1    5 ar
   3    1   26 1
   4    2    3 ar
   5    2   27 1
   6    3   18 ar
   7    3   28 1
   8    4    5 ar
   9    4    6 1
  10    4   18 ar
  11    5   29 1
  12    6    7 1
  13    7    8 1
  14    7   30 1
  15    7   31 1
  16    8    9 ar
  17    8   13 ar
  18    9   10 ar
  19   10   11 ar
  20   10   32 1
  21   11   12 ar
  22   11   14 1
  23   12   13 ar
  24   12   33 1
  25   13   34 1
  26   14   15 am
  27   14   16 2
  28   15   17 1
  29   15   35 1
  30   17   19 1
  31   17   20 1
  32   17   36 1
  33   18   37 1
  34   19   21 1
  35   19   25 1
  36   19   38 1
  37   20   39 1
  38   20   40 1
  39   20   41 1
  40   21   22 1
  41   21   42 1
  42   21   43 1
  43   22   23 1
  44   22   44 1
  45   22   45 1
  46   23   24 1
  47   23   46 1
  48   23   47 1
  49   24   25 1
  50   24   48 1
  51   24   49 1
  52   25   50 1
  53   25   51 1

#	End of record

