#	Name: ASD01913177
#	Creating user name:	WinNT
#	Creation time:	15. 06. 2019 20:01

#	Modifying user name:	WinNT
#	Modification time:	15. 06. 2019 20:01

#	Program:	/corina/corina34_cracker 3.40 0067  02.08.2006

@<TRIPOS>MOLECULE
ASD01913177
  45   48    0    0    0
SMALL
NO_CHARGES


@<TRIPOS>ATOM
   1 C1             0.5180     0.8826     1.0010 C.3     
   2 C2             1.0859    -0.4690     1.4186 C.2     
   3 C3             2.3250    -0.8719     1.0792 C.2     
   4 C4             3.3119    -0.0613     0.2662 C.3     
   5 C5             2.5583     1.0474    -0.4752 C.3     
   6 N6             1.6241     1.6872     0.4631 N.am    
   7 C7             0.3818    -1.3978     2.1784 C.2     
   8 C8             1.0260    -2.5293     2.4459 C.2     
   9 S9             2.6271    -2.4806     1.7236 S.3     
  10 C10            1.7785     2.9774     0.8207 C.2     
  11 C11            0.7578     3.6387     1.6577 C.ar    
  12 C12            1.1407     4.5884     2.6039 C.ar    
  13 C13            0.1729     5.2093     3.3905 C.ar    
  14 C14           -1.1809     4.8738     3.2242 C.ar    
  15 C15           -1.5501     3.9270     2.2797 C.ar    
  16 C16           -0.5936     3.3168     1.4975 C.ar    
  17 O17            2.7584     3.5968     0.4540 O.2     
  18 C18            0.5570     6.1856     4.3652 C.1     
  19 C19            0.8718     6.9860     5.1643 C.1     
  20 C20            1.2559     7.9622     6.1390 C.ar    
  21 C21            0.2788     8.5806     6.9242 C.ar    
  22 C22            0.6664     9.5210     7.8607 C.ar    
  23 C23            2.0179     9.8158     7.9851 C.ar    
  24 C24            2.9324     9.1667     7.1763 C.ar    
  25 N25            2.5401     8.2701     6.2946 N.ar    
  26 O26           -2.1272     5.4752     3.9871 O.3     
  27 C27           -3.4839     5.0858     3.7645 C.3     
  28 H28           -0.2435     0.7421     0.2338 H       
  29 H29            0.0836     1.3837     1.8660 H       
  30 H30            4.0532     0.3831     0.9303 H       
  31 H31            3.8091    -0.7095    -0.4554 H       
  32 H32            3.2677     1.7868    -0.8468 H       
  33 H33            2.0027     0.6180    -1.3089 H       
  34 H34           -0.6227    -1.2114     2.5285 H       
  35 H35            0.6265    -3.3526     3.0195 H       
  36 H36            2.1834     4.8414     2.7269 H       
  37 H37           -2.5916     3.6704     2.1539 H       
  38 H38           -0.8884     2.5841     0.7609 H       
  39 H39           -0.7640     8.3278     6.8009 H       
  40 H40           -0.0657    10.0158     8.4816 H       
  41 H41            2.3516    10.5461     8.7074 H       
  42 H42            3.9837     9.3949     7.2719 H       
  43 H43           -3.7592     5.3018     2.7322 H       
  44 H44           -3.5910     4.0175     3.9531 H       
  45 H45           -4.1365     5.6409     4.4384 H       
@<TRIPOS>BOND
   1    1    2 1
   2    1    6 1
   3    1   28 1
   4    1   29 1
   5    2    3 2
   6    2    7 1
   7    3    4 1
   8    3    9 1
   9    4    5 1
  10    4   30 1
  11    4   31 1
  12    5    6 1
  13    5   32 1
  14    5   33 1
  15    6   10 am
  16    7    8 2
  17    7   34 1
  18    8    9 1
  19    8   35 1
  20   10   11 1
  21   10   17 2
  22   11   12 ar
  23   11   16 ar
  24   12   13 ar
  25   12   36 1
  26   13   14 ar
  27   13   18 1
  28   14   15 ar
  29   14   26 1
  30   15   16 ar
  31   15   37 1
  32   16   38 1
  33   18   19 3
  34   19   20 1
  35   20   21 ar
  36   20   25 ar
  37   21   22 ar
  38   21   39 1
  39   22   23 ar
  40   22   40 1
  41   23   24 ar
  42   23   41 1
  43   24   25 ar
  44   24   42 1
  45   26   27 1
  46   27   43 1
  47   27   44 1
  48   27   45 1

#	End of record

