#	Name: ASD09740687
#	Creating user name:	WinNT
#	Creation time:	15. 06. 2019 21:23

#	Modifying user name:	WinNT
#	Modification time:	15. 06. 2019 21:23

#	Program:	/corina/corina34_cracker 3.40 0067  02.08.2006

@<TRIPOS>MOLECULE
ASD09740687
  57   61    0    0    0
SMALL
NO_CHARGES


@<TRIPOS>ATOM
   1 C1             0.0032     0.0606     0.4290 C.1     
   2 C2            -0.0174     1.4292     0.0083 C.ar    
   3 C3             1.1860     2.1185    -0.2050 C.ar    
   4 C4             1.1630     3.4443    -0.6131 C.ar    
   5 C5            -0.0390     4.0893    -0.8105 C.ar    
   6 C6            -1.2440     3.4126    -0.6007 C.ar    
   7 C7            -1.2330     2.0800    -0.1965 C.ar    
   8 N8             0.0195    -1.0251     0.7628 N.1     
   9 O9             2.3719     1.4887    -0.0117 O.3     
  10 C10            3.5546     2.2821    -0.1293 C.3     
  11 C11            4.6796     1.6450     0.6889 C.3     
  12 C12            3.9732     2.3589    -1.5989 C.3     
  13 S13           -2.7305     5.7854    -1.3291 S.3     
  14 C14           -2.5298     4.1097    -0.8136 C.2     
  15 N15           -3.7196     3.5946    -0.6543 N.2     
  16 N16           -4.7136     4.3365    -0.8819 N.2     
  17 C17           -4.4798     5.5642    -1.2599 C.2     
  18 C18           -9.1929     6.6551    -1.5906 C.3     
  19 C19           -8.9943     5.1245    -1.5818 C.3     
  20 C20           -7.5417     4.9829    -1.0797 C.3     
  21 C21           -6.8586     6.2741    -1.4759 C.ar    
  22 C22           -5.4995     6.5875    -1.5731 C.ar    
  23 C23           -5.1071     7.8668    -1.9655 C.ar    
  24 C24           -6.0637     8.8177    -2.2562 C.ar    
  25 C25           -7.4060     8.5030    -2.1586 C.ar    
  26 C26           -7.8052     7.2335    -1.7691 C.ar    
  27 N27          -10.0579     7.0505    -2.7101 N.3     
  28 C28          -10.7337     8.3241    -2.4289 C.3     
  29 C29          -11.6100     8.6964    -3.5970 C.2     
  30 N30          -11.2201     9.3313    -4.6685 N.2     
  31 C31          -12.2654     9.4896    -5.4938 C.2     
  32 C32          -13.3441     8.9317    -4.9118 C.2     
  33 N33          -12.9276     8.4232    -3.7110 N.pl3   
  34 H34            2.0904     3.9731    -0.7763 H       
  35 H35           -0.0499     5.1214    -1.1283 H       
  36 H36           -2.1628     1.5539    -0.0381 H       
  37 H37            3.3570     3.2865     0.2452 H       
  38 H38            4.8772     0.6406     0.3145 H       
  39 H39            5.5817     2.2502     0.5992 H       
  40 H40            4.3813     1.5903     1.7359 H       
  41 H41            4.1708     1.3545    -1.9733 H       
  42 H42            3.1717     2.8128    -2.1817 H       
  43 H43            4.8753     2.9641    -1.6886 H       
  44 H44           -9.6219     6.9863    -0.6448 H       
  45 H45           -9.6909     4.6472    -0.8925 H       
  46 H46           -9.0990     4.7143    -2.5862 H       
  47 H47           -7.5258     4.8635     0.0037 H       
  48 H48           -7.0558     4.1345    -1.5616 H       
  49 H49           -4.0582     8.1125    -2.0413 H       
  50 H50           -5.7631     9.8096    -2.5601 H       
  51 H51           -8.1498     9.2519    -2.3871 H       
  52 H52           -9.5343     7.1013    -3.5711 H       
  53 H53          -11.3465     8.2203    -1.5335 H       
  54 H54           -9.9884     9.1037    -2.2708 H       
  55 H55          -12.2457     9.9791    -6.4564 H       
  56 H56          -14.3445     8.8898    -5.3164 H       
  57 H57          -13.4768     7.9562    -3.0621 H       
@<TRIPOS>BOND
   1    1    2 1
   2    1    8 3
   3    2    3 ar
   4    2    7 ar
   5    3    4 ar
   6    3    9 1
   7    4    5 ar
   8    4   34 1
   9    5    6 ar
  10    5   35 1
  11    6    7 ar
  12    6   14 1
  13    7   36 1
  14    9   10 1
  15   10   11 1
  16   10   12 1
  17   10   37 1
  18   11   38 1
  19   11   39 1
  20   11   40 1
  21   12   41 1
  22   12   42 1
  23   12   43 1
  24   13   14 1
  25   13   17 1
  26   14   15 2
  27   15   16 1
  28   16   17 2
  29   17   22 1
  30   18   19 1
  31   18   26 1
  32   18   27 1
  33   18   44 1
  34   19   20 1
  35   19   45 1
  36   19   46 1
  37   20   21 1
  38   20   47 1
  39   20   48 1
  40   21   22 ar
  41   21   26 ar
  42   22   23 ar
  43   23   24 ar
  44   23   49 1
  45   24   25 ar
  46   24   50 1
  47   25   26 ar
  48   25   51 1
  49   27   28 1
  50   27   52 1
  51   28   29 1
  52   28   53 1
  53   28   54 1
  54   29   30 2
  55   29   33 1
  56   30   31 1
  57   31   32 2
  58   31   55 1
  59   32   33 1
  60   32   56 1
  61   33   57 1

#	End of record

