#	Name: ASD04910189
#	Creating user name:	WinNT
#	Creation time:	15. 06. 2019 20:55

#	Modifying user name:	WinNT
#	Modification time:	15. 06. 2019 20:55

#	Program:	/corina/corina34_cracker 3.40 0067  02.08.2006

@<TRIPOS>MOLECULE
ASD04910189
  25   26    0    0    0
SMALL
NO_CHARGES


@<TRIPOS>ATOM
   1 C1            -0.0178     1.3666    -0.1413 C.ar    
   2 C2             0.0043     0.0260     0.2120 C.ar    
   3 C3             1.2296    -0.6209     0.3438 C.ar    
   4 C4             2.3859     0.1047     0.1155 C.ar    
   5 C5             2.2860     1.4449    -0.2353 C.ar    
   6 N6             1.1037     2.0273    -0.3515 N.ar    
   7 O7            -1.1565    -0.6482     0.4274 O.3     
   8 N8             3.4489     2.1875    -0.4684 N.pl3   
   9 N9             4.6805     1.6787    -0.9006 N.2     
  10 C10            5.5220     2.6752    -1.0041 C.2     
  11 C11            4.8579     3.8524    -0.6422 C.2     
  12 C12            3.5833     3.5310    -0.3217 C.2     
  13 C13            5.4556     5.2357    -0.6189 C.3     
  14 F14            6.7946     5.1719    -1.0190 F       
  15 F15            4.7462     6.0650    -1.4942 F       
  16 F16            5.3807     5.7542     0.6783 F       
  17 C17            3.7365    -0.5511     0.2462 C.3     
  18 H18           -0.9648     1.8744    -0.2500 H       
  19 H19            1.2770    -1.6644     0.6182 H       
  20 H20           -1.5198    -1.0687    -0.3640 H       
  21 H21            6.5536     2.6016    -1.3154 H       
  22 H22            2.8127     4.2181    -0.0046 H       
  23 H23            4.0764    -0.8816    -0.7353 H       
  24 H24            4.4496     0.1643     0.6558 H       
  25 H25            3.6602    -1.4103     0.9126 H       
@<TRIPOS>BOND
   1    1    2 ar
   2    1    6 ar
   3    1   18 1
   4    2    3 ar
   5    2    7 1
   6    3    4 ar
   7    3   19 1
   8    4    5 ar
   9    4   17 1
  10    5    6 ar
  11    5    8 1
  12    7   20 1
  13    8    9 1
  14    8   12 1
  15    9   10 2
  16   10   11 1
  17   10   21 1
  18   11   12 2
  19   11   13 1
  20   12   22 1
  21   13   14 1
  22   13   15 1
  23   13   16 1
  24   17   23 1
  25   17   24 1
  26   17   25 1

#	End of record

