#	Name: ASD03092194
#	Creating user name:	WinNT
#	Creation time:	15. 06. 2019 20:32

#	Modifying user name:	WinNT
#	Modification time:	15. 06. 2019 20:32

#	Program:	/corina/corina34_cracker 3.40 0067  02.08.2006

@<TRIPOS>MOLECULE
ASD03092194
  55   58    0    0    0
SMALL
NO_CHARGES


@<TRIPOS>ATOM
   1 N1            -0.0654     1.2624    -0.3054 N.pl3   
   2 C2            -0.2404    -0.0008     0.1768 C.2     
   3 C3            -1.5833    -0.1981     0.3297 C.2     
   4 C4            -2.2365     0.9747    -0.0698 C.2     
   5 N5            -1.3301     1.8481    -0.4439 N.2     
   6 C6             0.8279    -0.9785     0.4785 C.ar    
   7 C7             2.0906    -0.8701    -0.1153 C.ar    
   8 C8             3.0574    -1.8036     0.1944 C.ar    
   9 N9             2.8043    -2.7876     1.0364 N.ar    
  10 C10            1.6280    -2.9263     1.6179 C.ar    
  11 C11            0.6058    -2.0341     1.3701 C.ar    
  12 C12            1.2178     1.8967    -0.6172 C.3     
  13 N13           -3.6210     1.1824    -0.0661 N.pl3   
  14 C14           -4.1402     2.4434    -0.3799 C.ar    
  15 C15           -5.4184     2.5557    -0.9103 C.ar    
  16 C16           -5.9326     3.8008    -1.2201 C.ar    
  17 C17           -5.1747     4.9395    -1.0031 C.ar    
  18 C18           -3.8917     4.8302    -0.4711 C.ar    
  19 C19           -3.3793     3.5833    -0.1555 C.ar    
  20 O20           -3.3593     6.0818    -0.3554 O.3     
  21 O21           -5.4453     6.2609    -1.2203 O.3     
  22 C22           -4.4776     6.9849    -0.4376 C.3     
  23 F23           -4.9830     7.2588     0.8379 F       
  24 F24           -4.1074     8.1682    -1.0855 F       
  25 C25            1.5052     1.7576    -2.1135 C.3     
  26 C26            2.8361     2.3896    -2.4302 C.2     
  27 N27            3.2994     2.3866    -3.6959 N.am    
  28 C28            1.4004    -4.0715     2.5707 C.3     
  29 C29            4.4213    -1.6988    -0.4379 C.3     
  30 C30            4.5932     3.0010    -4.0038 C.3     
  31 O31            3.4904     2.9009    -1.5462 O.2     
  32 C32            2.5091     1.7689    -4.7637 C.3     
  33 H33           -2.0570    -1.0980     0.6932 H       
  34 H34            2.3045    -0.0678    -0.8058 H       
  35 H35           -0.3545    -2.1538     1.8496 H       
  36 H36            1.1749     2.9531    -0.3521 H       
  37 H37            2.0108     1.4112    -0.0482 H       
  38 H38           -4.2204     0.4521     0.1539 H       
  39 H39           -6.0114     1.6694    -1.0812 H       
  40 H40           -6.9272     3.8858    -1.6326 H       
  41 H41           -2.3851     3.4965     0.2574 H       
  42 H42            1.5315     0.7014    -2.3818 H       
  43 H43            0.7211     2.2575    -2.6821 H       
  44 H44            1.6626    -3.7604     3.5819 H       
  45 H45            0.3511    -4.3653     2.5415 H       
  46 H46            2.0227    -4.9171     2.2777 H       
  47 H47            5.0672    -1.0860     0.1910 H       
  48 H48            4.8522    -2.6948    -0.5396 H       
  49 H49            4.3311    -1.2397    -1.4223 H       
  50 H50            5.3819     2.2549    -3.9068 H       
  51 H51            4.5796     3.3848    -5.0239 H       
  52 H52            4.7807     3.8203    -3.3098 H       
  53 H53            1.5852     1.3683    -4.3466 H       
  54 H54            2.2719     2.5176    -5.5196 H       
  55 H55            3.0823     0.9615    -5.2193 H       
@<TRIPOS>BOND
   1    1    2 1
   2    1   12 1
   3    1    5 1
   4    2    3 2
   5    2    6 1
   6    3    4 1
   7    3   33 1
   8    4    5 2
   9    4   13 1
  10    6    7 ar
  11    6   11 ar
  12    7    8 ar
  13    7   34 1
  14    8    9 ar
  15    8   29 1
  16    9   10 ar
  17   10   11 ar
  18   10   28 1
  19   11   35 1
  20   12   25 1
  21   12   36 1
  22   12   37 1
  23   13   14 1
  24   13   38 1
  25   14   15 ar
  26   14   19 ar
  27   15   16 ar
  28   15   39 1
  29   16   17 ar
  30   16   40 1
  31   17   18 ar
  32   17   21 1
  33   18   19 ar
  34   18   20 1
  35   19   41 1
  36   20   22 1
  37   21   22 1
  38   22   23 1
  39   22   24 1
  40   25   26 1
  41   25   42 1
  42   25   43 1
  43   26   27 am
  44   26   31 2
  45   27   30 1
  46   27   32 1
  47   28   44 1
  48   28   45 1
  49   28   46 1
  50   29   47 1
  51   29   48 1
  52   29   49 1
  53   30   50 1
  54   30   51 1
  55   30   52 1
  56   32   53 1
  57   32   54 1
  58   32   55 1

#	End of record

