#	Name: ASD03091492
#	Creating user name:	WinNT
#	Creation time:	15. 06. 2019 20:30

#	Modifying user name:	WinNT
#	Modification time:	15. 06. 2019 20:30

#	Program:	/corina/corina34_cracker 3.40 0067  02.08.2006

@<TRIPOS>MOLECULE
ASD03091492
  55   59    0    0    0
SMALL
NO_CHARGES


@<TRIPOS>ATOM
   1 N1            -0.0163     1.3519     0.0095 N.pl3   
   2 C2             0.0021    -0.0041     0.0020 C.2     
   3 C3             1.1381    -0.7093     0.2660 C.2     
   4 C4             2.3788     0.0267     0.5580 C.2     
   5 C5             2.3734     1.4687     0.2772 C.ar    
   6 C6             3.5462     2.2360     0.2735 C.ar    
   7 N7             3.4819     3.5325     0.0080 N.ar    
   8 C8             2.3374     4.1399    -0.2569 C.ar    
   9 C9             1.1409     3.4582    -0.2709 C.ar    
  10 C10            1.1400     2.0902     0.0024 C.ar    
  11 N11            4.7655     1.6424     0.5463 N.pl3   
  12 C12            5.9894     2.4475     0.5416 C.3     
  13 C13            7.1699     1.5687     0.8662 C.ar    
  14 C14            7.8592     0.9340    -0.1501 C.ar    
  15 C15            8.9420     0.1279     0.1476 C.ar    
  16 C16            9.3358    -0.0431     1.4616 C.ar    
  17 C17            8.6470     0.5923     2.4778 C.ar    
  18 C18            7.5669     1.4019     2.1797 C.ar    
  19 O19            3.3632    -0.5331     1.0114 O.2     
  20 C20           -1.3058     2.0471     0.0193 C.3     
  21 C21           -1.7413     2.2778     1.4434 C.ar    
  22 C22           -1.3729     3.4373     2.0997 C.ar    
  23 C23           -1.7723     3.6489     3.4060 C.ar    
  24 C24           -2.5406     2.7011     4.0560 C.ar    
  25 C25           -2.9097     1.5420     3.3995 C.ar    
  26 C26           -2.5139     1.3324     2.0917 C.ar    
  27 C27            1.1243    -2.1921     0.2597 C.ar    
  28 C28            1.8626    -2.8943    -0.6915 C.ar    
  29 C29            1.8463    -4.2741    -0.6932 C.ar    
  30 C30            1.0983    -4.9610     0.2477 C.ar    
  31 C31            0.3629    -4.2683     1.1943 C.ar    
  32 C32            0.3774    -2.8885     1.2084 C.ar    
  33 Cl33           1.0821    -6.6969     0.2403 Cl      
  34 H34           -0.9091    -0.5401    -0.2190 H       
  35 H35            2.3413     5.1990    -0.4682 H       
  36 H36            0.2179     3.9745    -0.4898 H       
  37 H37            4.8101     0.6931     0.7407 H       
  38 H38            6.1278     2.8925    -0.4438 H       
  39 H39            5.9079     3.2370     1.2887 H       
  40 H40            7.5516     1.0676    -1.1767 H       
  41 H41            9.4801    -0.3685    -0.6463 H       
  42 H42           10.1813    -0.6734     1.6943 H       
  43 H43            8.9544     0.4585     3.5045 H       
  44 H44            7.0310     1.9013     2.9734 H       
  45 H45           -1.2056     3.0057    -0.4898 H       
  46 H46           -2.0504     1.4390    -0.4944 H       
  47 H47           -0.7727     4.1778     1.5919 H       
  48 H48           -1.4839     4.5545     3.9190 H       
  49 H49           -2.8521     2.8661     5.0769 H       
  50 H50           -3.5097     0.8014     3.9074 H       
  51 H51           -2.8054     0.4285     1.5775 H       
  52 H52            2.4462    -2.3593    -1.4262 H       
  53 H53            2.4178    -4.8191    -1.4299 H       
  54 H54           -0.2195    -4.8088     1.9258 H       
  55 H55           -0.1925    -2.3491     1.9505 H       
@<TRIPOS>BOND
   1    1    2 1
   2    1   10 1
   3    1   20 1
   4    2    3 2
   5    2   34 1
   6    3    4 1
   7    3   27 1
   8    4    5 1
   9    4   19 2
  10    5    6 ar
  11    5   10 ar
  12    6    7 ar
  13    6   11 1
  14    7    8 ar
  15    8    9 ar
  16    8   35 1
  17    9   10 ar
  18    9   36 1
  19   11   12 1
  20   11   37 1
  21   12   13 1
  22   12   38 1
  23   12   39 1
  24   13   14 ar
  25   13   18 ar
  26   14   15 ar
  27   14   40 1
  28   15   16 ar
  29   15   41 1
  30   16   17 ar
  31   16   42 1
  32   17   18 ar
  33   17   43 1
  34   18   44 1
  35   20   21 1
  36   20   45 1
  37   20   46 1
  38   21   22 ar
  39   21   26 ar
  40   22   23 ar
  41   22   47 1
  42   23   24 ar
  43   23   48 1
  44   24   25 ar
  45   24   49 1
  46   25   26 ar
  47   25   50 1
  48   26   51 1
  49   27   28 ar
  50   27   32 ar
  51   28   29 ar
  52   28   52 1
  53   29   30 ar
  54   29   53 1
  55   30   31 ar
  56   30   33 1
  57   31   32 ar
  58   31   54 1
  59   32   55 1

#	End of record

