#	Name: ASD01912089
#	Creating user name:	WinNT
#	Creation time:	15. 06. 2019 19:59

#	Modifying user name:	WinNT
#	Modification time:	15. 06. 2019 19:59

#	Program:	/corina/corina34_cracker 3.40 0067  02.08.2006

@<TRIPOS>MOLECULE
ASD01912089
  59   63    0    0    0
SMALL
NO_CHARGES


@<TRIPOS>ATOM
   1 C1            -0.0046     1.4158     0.0523 C.2     
   2 C2            -0.0093     0.0110     0.0265 C.2     
   3 N3             1.2380    -0.4056    -0.0382 N.2     
   4 N4             2.0784     0.7146    -0.0558 N.pl3   
   5 C5             1.2944     1.8290     0.0006 C.2     
   6 C6             1.7668     3.2315     0.0045 C.ar    
   7 C7             3.0192     3.5501    -0.5207 C.ar    
   8 C8             3.4541     4.8595    -0.5141 C.ar    
   9 C9             2.6508     5.8555     0.0120 C.ar    
  10 C10            1.4078     5.5459     0.5344 C.ar    
  11 C11            0.9592     4.2411     0.5283 C.ar    
  12 C12           -1.2141    -0.8551     0.0655 C.ar    
  13 C13           -1.0792    -2.2413     0.0336 C.ar    
  14 C14           -2.2020    -3.0429     0.0706 C.ar    
  15 C15           -3.4618    -2.4710     0.1392 C.ar    
  16 C16           -3.6005    -1.0927     0.1705 C.ar    
  17 C17           -2.4830    -0.2841     0.1398 C.ar    
  18 F18           -4.5584    -3.2593     0.1751 F       
  19 C19            3.5417     0.6931    -0.1223 C.3     
  20 C20            3.9777     0.5818    -1.5606 C.2     
  21 N21            5.2898     0.5443    -1.8661 N.am    
  22 O22            3.1477     0.5260    -2.4432 O.2     
  23 C23            6.3202     0.6100    -0.8199 C.3     
  24 C24            7.4138     1.5420    -1.2625 C.2     
  25 C25            7.5139     2.0102    -2.4873 C.2     
  26 C26            6.5513     1.6965    -3.5940 C.3     
  27 C27            5.7484     0.4298    -3.2612 C.3     
  28 C28            8.6444     2.9009    -2.7921 C.2     
  29 O29            9.5974     3.2861    -1.9245 O.3     
  30 C30           -2.0574    -4.5425     0.0357 C.3     
  31 C31           10.4484     4.0965    -2.5844 C.2     
  32 C32           10.0043     4.1972    -3.8510 C.2     
  33 N33            8.8965     3.4495    -3.9593 N.2     
  34 C34           11.6706     4.7658    -2.0106 C.3     
  35 H35           -0.8743     2.0544     0.0998 H       
  36 H36            3.6473     2.7734    -0.9314 H       
  37 H37            4.4236     5.1075    -0.9201 H       
  38 H38            2.9958     6.8789     0.0152 H       
  39 H39            0.7853     6.3279     0.9436 H       
  40 H40           -0.0114     4.0006     0.9364 H       
  41 H41           -0.0974    -2.6879    -0.0202 H       
  42 H42           -4.5845    -0.6508     0.2237 H       
  43 H43           -2.5920     0.7901     0.1643 H       
  44 H44            3.9386     1.6129     0.3075 H       
  45 H45            3.9184    -0.1622     0.4387 H       
  46 H46            5.8776     0.9807     0.1046 H       
  47 H47            6.7343    -0.3845    -0.6535 H       
  48 H48            8.1553     1.8428    -0.5370 H       
  49 H49            5.8678     2.5353    -3.7259 H       
  50 H50            7.1051     1.5375    -4.5193 H       
  51 H51            6.3826    -0.4493    -3.3759 H       
  52 H52            4.8880     0.3536    -3.9260 H       
  53 H53           -1.9750    -4.9233     1.0537 H       
  54 H54           -2.9312    -4.9807    -0.4465 H       
  55 H55           -1.1613    -4.8082    -0.5252 H       
  56 H56           10.4615     4.7746    -4.6410 H       
  57 H57           12.5349     4.1137    -2.1366 H       
  58 H58           11.8471     5.7074    -2.5304 H       
  59 H59           11.5140     4.9603    -0.9496 H       
@<TRIPOS>BOND
   1    1    2 1
   2    1    5 2
   3    1   35 1
   4    2    3 2
   5    2   12 1
   6    3    4 1
   7    4    5 1
   8    4   19 1
   9    5    6 1
  10    6    7 ar
  11    6   11 ar
  12    7    8 ar
  13    7   36 1
  14    8    9 ar
  15    8   37 1
  16    9   10 ar
  17    9   38 1
  18   10   11 ar
  19   10   39 1
  20   11   40 1
  21   12   13 ar
  22   12   17 ar
  23   13   14 ar
  24   13   41 1
  25   14   15 ar
  26   14   30 1
  27   15   16 ar
  28   15   18 1
  29   16   17 ar
  30   16   42 1
  31   17   43 1
  32   19   20 1
  33   19   44 1
  34   19   45 1
  35   20   21 am
  36   20   22 2
  37   21   23 1
  38   21   27 1
  39   23   24 1
  40   23   46 1
  41   23   47 1
  42   24   25 2
  43   24   48 1
  44   25   26 1
  45   25   28 1
  46   26   27 1
  47   26   49 1
  48   26   50 1
  49   27   51 1
  50   27   52 1
  51   28   29 1
  52   28   33 2
  53   29   31 1
  54   30   53 1
  55   30   54 1
  56   30   55 1
  57   31   32 2
  58   31   34 1
  59   32   33 1
  60   32   56 1
  61   34   57 1
  62   34   58 1
  63   34   59 1

#	End of record

