#	Name: ASD01230743
#	Creating user name:	WinNT
#	Creation time:	15. 06. 2019 19:15

#	Modifying user name:	WinNT
#	Modification time:	15. 06. 2019 19:15

#	Program:	/corina/corina34_cracker 3.40 0067  02.08.2006

@<TRIPOS>MOLECULE
ASD01230743
  45   48    0    0    0
SMALL
NO_CHARGES


@<TRIPOS>ATOM
   1 C1            -0.3372     3.4386     0.6824 C.3     
   2 C2            -0.7666     2.1014     1.2921 C.3     
   3 C3            -2.2773     2.0350     1.4666 C.3     
   4 C4            -2.9069     3.4070     1.6632 C.3     
   5 N5            -1.9614     4.3447     2.2730 N.pl3   
   6 C6            -0.7505     4.5279     1.6573 C.2     
   7 C7            -2.2932     5.0318     3.5186 C.3     
   8 C8            -2.0795     6.5362     3.3436 C.3     
   9 S9            -0.3862     6.8400     2.7742 S.o2    
  10 N10           -0.0033     5.5468     1.8290 N.am    
  11 C11            1.1576     3.4599     0.4921 C.ar    
  12 C12            1.6899     3.6263    -0.7732 C.ar    
  13 O13           -0.3541     7.9445     1.8807 O.2     
  14 O14            0.5249     6.7569     3.8615 O.2     
  15 C15            1.9943     3.3186     1.5838 C.ar    
  16 C16            3.3649     3.3382     1.4122 C.ar    
  17 C17            3.9017     3.4993     0.1428 C.ar    
  18 C18            3.0597     3.6461    -0.9504 C.ar    
  19 O19            5.2495     3.5189    -0.0287 O.3     
  20 C20            6.0341     3.2693     1.0528 C.ar    
  21 C21            6.3985     1.9666     1.3606 C.ar    
  22 C22            7.1963     1.7146     2.4598 C.ar    
  23 C23            7.6323     2.7614     3.2542 C.ar    
  24 C24            7.2694     4.0622     2.9483 C.ar    
  25 C25            6.4760     4.3177     1.8467 C.ar    
  26 F26            8.4122     2.5134     4.3292 F       
  27 H27           -0.8355     3.5872    -0.2756 H       
  28 H28           -0.4468     1.2911     0.6369 H       
  29 H29           -0.2891     1.9825     2.2647 H       
  30 H30           -2.7137     1.5710     0.5822 H       
  31 H31           -2.5044     1.4159     2.3346 H       
  32 H32           -3.2222     3.7969     0.6954 H       
  33 H33           -3.7797     3.3098     2.3090 H       
  34 H34           -3.3356     4.8400     3.7728 H       
  35 H35           -1.6505     4.6643     4.3187 H       
  36 H36           -2.7853     6.9205     2.6071 H       
  37 H37           -2.2384     7.0395     4.2973 H       
  38 H38            1.0342     3.7405    -1.6237 H       
  39 H39            1.5760     3.1932     2.5715 H       
  40 H40            4.0180     3.2285     2.2653 H       
  41 H41            3.4750     3.7716    -1.9394 H       
  42 H42            6.0583     1.1498     0.7413 H       
  43 H43            7.4799     0.7005     2.6998 H       
  44 H44            7.6100     4.8777     3.5691 H       
  45 H45            6.1932     5.3324     1.6084 H       
@<TRIPOS>BOND
   1    1    2 1
   2    1   11 1
   3    1    6 1
   4    1   27 1
   5    2    3 1
   6    2   28 1
   7    2   29 1
   8    3    4 1
   9    3   30 1
  10    3   31 1
  11    4    5 1
  12    4   32 1
  13    4   33 1
  14    5    6 1
  15    5    7 1
  16    6   10 2
  17    7    8 1
  18    7   34 1
  19    7   35 1
  20    8    9 1
  21    8   36 1
  22    8   37 1
  23    9   10 am
  24    9   13 2
  25    9   14 2
  26   11   12 ar
  27   11   15 ar
  28   12   18 ar
  29   12   38 1
  30   15   16 ar
  31   15   39 1
  32   16   17 ar
  33   16   40 1
  34   17   18 ar
  35   17   19 1
  36   18   41 1
  37   19   20 1
  38   20   21 ar
  39   20   25 ar
  40   21   22 ar
  41   21   42 1
  42   22   23 ar
  43   22   43 1
  44   23   24 ar
  45   23   26 1
  46   24   25 ar
  47   24   44 1
  48   25   45 1

#	End of record

