#	Name: ASD00310367
#	Creating user name:	WinNT
#	Creation time:	15. 06. 2019 18:34

#	Modifying user name:	WinNT
#	Modification time:	15. 06. 2019 18:34

#	Program:	/corina/corina34_cracker 3.40 0067  02.08.2006

@<TRIPOS>MOLECULE
ASD00310367
  42   45    0    0    0
SMALL
NO_CHARGES


@<TRIPOS>ATOM
   1 N1            -0.0153     1.2793     0.0091 N.pl3   
   2 N2             0.0021    -0.0041     0.0020 N.2     
   3 C3             1.2291    -0.4800    -0.0122 C.2     
   4 C4             2.1243     0.6858    -0.0145 C.ar    
   5 C5             3.5013     0.8760    -0.0273 C.ar    
   6 C6             4.0094     2.1679    -0.0259 C.ar    
   7 C7             3.1380     3.2658    -0.0117 C.ar    
   8 C8             1.7841     3.0822     0.0009 C.ar    
   9 C9             1.2548     1.7947    -0.0003 C.ar    
  10 C10            1.6259    -1.8978    -0.0232 C.2     
  11 O11            2.8032    -2.1992    -0.0357 O.2     
  12 O12            0.6835    -2.8615    -0.0195 O.3     
  13 C13            5.4767     2.3868    -0.0389 C.ar    
  14 C14            6.0452     3.2608    -0.9635 C.ar    
  15 C15            7.4107     3.4611    -0.9708 C.ar    
  16 C16            8.2147     2.7961    -0.0626 C.ar    
  17 C17            7.6558     1.9271     0.8571 C.ar    
  18 C18            6.2909     1.7236     0.8771 C.ar    
  19 C19           11.6752     3.7254     1.2842 C.3     
  20 C20           10.1515     3.5766     1.2794 C.3     
  21 C21            9.7050     3.0189    -0.0756 C.3     
  22 C22           10.4199     1.6880    -0.3282 C.3     
  23 C23           11.9332     1.9097    -0.2613 C.3     
  24 O24           12.2771     2.4581     1.0127 O.3     
  25 F25            3.6423     4.5191    -0.0100 F       
  26 H26           -0.8235     1.8157     0.0159 H       
  27 H27            4.1691     0.0273    -0.0379 H       
  28 H28            1.1240     3.9368     0.0118 H       
  29 H29            0.9925    -3.7777    -0.0270 H       
  30 H30            5.4184     3.7803    -1.6733 H       
  31 H31            7.8524     4.1379    -1.6872 H       
  32 H32            8.2883     1.4100     1.5634 H       
  33 H33            5.8551     1.0483     1.5985 H       
  34 H34           11.9729     4.4409     0.5177 H       
  35 H35           12.0026     4.0815     2.2610 H       
  36 H36            9.8499     2.8921     2.0723 H       
  37 H37            9.6899     4.5504     1.4426 H       
  38 H38            9.9610     3.7271    -0.8636 H       
  39 H39           10.1238     0.9653     0.4322 H       
  40 H40           10.1503     1.3112    -1.3148 H       
  41 H41           12.4465     0.9579    -0.3979 H       
  42 H42           12.2344     2.6015    -1.0480 H       
@<TRIPOS>BOND
   1    1    2 1
   2    1    9 1
   3    1   26 1
   4    2    3 2
   5    3    4 1
   6    3   10 1
   7    4    5 ar
   8    4    9 ar
   9    5    6 ar
  10    5   27 1
  11    6    7 ar
  12    6   13 1
  13    7    8 ar
  14    7   25 1
  15    8    9 ar
  16    8   28 1
  17   10   11 2
  18   10   12 1
  19   12   29 1
  20   13   14 ar
  21   13   18 ar
  22   14   15 ar
  23   14   30 1
  24   15   16 ar
  25   15   31 1
  26   16   17 ar
  27   16   21 1
  28   17   18 ar
  29   17   32 1
  30   18   33 1
  31   19   20 1
  32   19   24 1
  33   19   34 1
  34   19   35 1
  35   20   21 1
  36   20   36 1
  37   20   37 1
  38   21   22 1
  39   21   38 1
  40   22   23 1
  41   22   39 1
  42   22   40 1
  43   23   24 1
  44   23   41 1
  45   23   42 1

#	End of record

