#	Name: ASD01140276
#	Creating user name:	WinNT
#	Creation time:	15. 06. 2019 19:00

#	Modifying user name:	WinNT
#	Modification time:	15. 06. 2019 19:00

#	Program:	/corina/corina34_cracker 3.40 0067  02.08.2006

@<TRIPOS>MOLECULE
ASD01140276
  48   52    0    0    0
SMALL
NO_CHARGES


@<TRIPOS>ATOM
   1 C1            -0.0169     1.3931     0.0097 C.ar    
   2 C2             0.0021    -0.0041     0.0020 C.ar    
   3 C3             1.2150    -0.6814    -0.0010 C.ar    
   4 C4             2.4238     0.0271     0.0034 C.ar    
   5 C5             2.3885     1.4240    -0.0128 C.ar    
   6 C6             1.1680     2.0938     0.0022 C.ar    
   7 C7             3.6698    -0.7454     0.0569 C.2     
   8 N8             4.7612    -0.5289    -0.5870 N.2     
   9 C9             4.8905     0.5817    -1.5375 C.3     
  10 C10            4.6768     1.8639    -0.7754 C.2     
  11 N11            3.5559     2.1891    -0.0778 N.pl3   
  12 C12           -1.2280    -0.7373    -0.0022 C.1     
  13 C13            3.7753     3.3964     0.5081 C.2     
  14 C14            3.6706    -1.9183     0.9645 C.ar    
  15 C15            5.5453     2.9009    -0.6445 C.2     
  16 N16            4.9565     3.8245     0.1597 N.2     
  17 C17            6.8811     3.0044    -1.2609 C.2     
  18 N18            7.7346     4.0074    -1.1345 N.2     
  19 C19           -2.2364    -1.3384    -0.0057 C.1     
  20 C20            4.8142    -2.7057     1.0742 C.ar    
  21 C21            4.8001    -3.7980     1.9265 C.ar    
  22 C22            3.6418    -4.0653     2.6402 C.ar    
  23 C23            2.5413    -3.2398     2.4820 C.ar    
  24 N24            2.5835    -2.2056     1.6693 N.ar    
  25 O25            7.4707     2.0966    -2.0553 O.3     
  26 N26            8.5666     2.4955    -2.3882 N.2     
  27 C27            8.8055     3.6621    -1.8655 C.2     
  28 C28           10.0588     4.4788    -2.0480 C.3     
  29 C29           11.2625     3.6881    -1.5316 C.3     
  30 C30           10.2526     4.7906    -3.5333 C.3     
  31 H31           -0.9586     1.9219     0.0170 H       
  32 H32            1.2262    -1.7613    -0.0065 H       
  33 H33            1.1507     3.1737     0.0079 H       
  34 H34            5.8870     0.5760    -1.9791 H       
  35 H35            4.1380     0.4875    -2.3205 H       
  36 H36            3.0844     3.9155     1.1559 H       
  37 H37           -3.1383    -1.8760    -0.0088 H       
  38 H38            5.6994    -2.4684     0.5028 H       
  39 H39            5.6715    -4.4272     2.0323 H       
  40 H40            3.5981    -4.9093     3.3126 H       
  41 H41            1.6374    -3.4451     3.0364 H       
  42 H42            9.9697     5.4107    -1.4897 H       
  43 H43           11.3516     2.7561    -2.0898 H       
  44 H44           12.1690     4.2788    -1.6635 H       
  45 H45           11.1244     3.4659    -0.4734 H       
  46 H46           11.1591     5.3814    -3.6652 H       
  47 H47           10.3417     3.8587    -4.0916 H       
  48 H48            9.3950     5.3540    -3.9012 H       
@<TRIPOS>BOND
   1    1    2 ar
   2    1    6 ar
   3    1   31 1
   4    2    3 ar
   5    2   12 1
   6    3    4 ar
   7    3   32 1
   8    4    5 ar
   9    4    7 1
  10    5    6 ar
  11    5   11 1
  12    6   33 1
  13    7    8 2
  14    7   14 1
  15    8    9 1
  16    9   10 1
  17    9   34 1
  18    9   35 1
  19   10   11 1
  20   10   15 2
  21   11   13 1
  22   12   19 3
  23   13   16 2
  24   13   36 1
  25   14   20 ar
  26   14   24 ar
  27   15   16 1
  28   15   17 1
  29   17   25 1
  30   17   18 2
  31   18   27 1
  32   19   37 1
  33   20   21 ar
  34   20   38 1
  35   21   22 ar
  36   21   39 1
  37   22   23 ar
  38   22   40 1
  39   23   24 ar
  40   23   41 1
  41   25   26 1
  42   26   27 2
  43   27   28 1
  44   28   29 1
  45   28   30 1
  46   28   42 1
  47   29   43 1
  48   29   44 1
  49   29   45 1
  50   30   46 1
  51   30   47 1
  52   30   48 1

#	End of record

