#	Name: ASD06020198
#	Creating user name:	WinNT
#	Creation time:	15. 06. 2019 21:04

#	Modifying user name:	WinNT
#	Modification time:	15. 06. 2019 21:04

#	Program:	/corina/corina34_cracker 3.40 0067  02.08.2006

@<TRIPOS>MOLECULE
ASD06020198
  64   68    0    0    0
SMALL
NO_CHARGES


@<TRIPOS>ATOM
   1 C1             1.1348    -0.2397     0.5547 C.2     
   2 N2             1.6132    -1.3746     0.0073 N.am    
   3 O3            -0.0174    -0.1877     0.9354 O.2     
   4 O4             1.9357     0.8344     0.6846 O.3     
   5 C5             4.9184    -0.7751    -1.1816 C.2     
   6 N6             3.7232    -0.3393    -0.6284 N.pl3   
   7 C7             2.8937    -1.4073    -0.5037 C.2     
   8 C8             3.5485    -2.5389    -0.9757 C.2     
   9 C9             4.8045    -2.1596    -1.3987 C.2     
  10 C10            6.0203     0.0111    -1.4724 C.2     
  11 C11            7.2011    -0.5843    -1.9768 C.2     
  12 C12            8.4558     0.0626    -2.0979 C.2     
  13 C13            9.3237    -0.8411    -2.6198 C.2     
  14 C14            8.5566    -2.0727    -2.8170 C.2     
  15 C15            9.0455    -3.2803    -3.3375 C.2     
  16 C16            8.1526    -4.3107    -3.6801 C.2     
  17 C17            6.7455    -4.2857    -3.4967 C.2     
  18 C18            6.2691    -5.4695    -3.9576 C.2     
  19 C19            7.3865    -6.2107    -4.4197 C.2     
  20 C20            7.3426    -7.5053    -4.9830 C.2     
  21 C21            8.5192    -8.1243    -5.3986 C.2     
  22 C22            9.8246    -7.5782    -5.3183 C.2     
  23 C23           10.6661    -8.5187    -5.8337 C.2     
  24 C24            9.8792    -9.6117    -6.2173 C.2     
  25 N25            8.6218    -9.3545    -5.9450 N.2     
  26 N26            8.4830    -5.4777    -4.2389 N.2     
  27 N27            7.3054    -1.8374    -2.4045 N.2     
  28 C28            0.6107    -4.7961    -0.2922 C.ar    
  29 N29            1.3583    -3.7124    -0.2442 N.ar    
  30 C30            0.8139    -2.5149    -0.0423 C.ar    
  31 C31           -0.5633    -2.4180     0.1189 C.ar    
  32 C32           -1.3181    -3.5871     0.0615 C.ar    
  33 N33           -0.6975    -4.7468    -0.1442 N.ar    
  34 N34           -2.6947    -3.5439     0.2166 N.pl3   
  35 C35            1.3209     2.0616     1.1583 C.3     
  36 C36            0.7705     1.8445     2.5693 C.3     
  37 C37            2.3662     3.1785     1.1849 C.3     
  38 C38            0.1781     2.4548     0.2200 C.3     
  39 H39            3.5153     0.5733    -0.3738 H       
  40 H40            3.1441    -3.5399    -1.0059 H       
  41 H41            5.5605    -2.8059    -1.8196 H       
  42 H42            5.9789     1.0787    -1.3144 H       
  43 H43            8.6796     1.0836    -1.8261 H       
  44 H44           10.3683    -0.6836    -2.8445 H       
  45 H45           10.1078    -3.4183    -3.4751 H       
  46 H46            6.1657    -3.4799    -3.0715 H       
  47 H47            5.2369    -5.7868    -3.9699 H       
  48 H48            6.3968    -8.0152    -5.0914 H       
  49 H49           10.0982    -6.6094    -4.9271 H       
  50 H50           11.7388    -8.4362    -5.9287 H       
  51 H51           10.2491   -10.5235    -6.6626 H       
  52 H52            1.0835    -5.7522    -0.4622 H       
  53 H53           -1.0358    -1.4611     0.2846 H       
  54 H54           -3.1395    -2.6950     0.3665 H       
  55 H55           -3.2134    -4.3625     0.1754 H       
  56 H56            1.5947     1.6454     3.2542 H       
  57 H57            0.2372     2.7385     2.8928 H       
  58 H58            0.0874     0.9951     2.5662 H       
  59 H59            2.7584     3.3331     0.1797 H       
  60 H60            1.9047     4.0997     1.5406 H       
  61 H61            3.1803     2.8983     1.8534 H       
  62 H62           -0.5290     1.6289     0.1427 H       
  63 H63           -0.3312     3.3334     0.6160 H       
  64 H64            0.5805     2.6823    -0.7671 H       
@<TRIPOS>BOND
   1    1    2 am
   2    1    3 2
   3    1    4 1
   4    2    7 1
   5    2   30 1
   6    4   35 1
   7    5    6 1
   8    5    9 2
   9    5   10 1
  10    6    7 1
  11    6   39 1
  12    7    8 2
  13    8    9 1
  14    8   40 1
  15    9   41 1
  16   10   11 2
  17   10   42 1
  18   11   12 1
  19   11   27 1
  20   12   13 2
  21   12   43 1
  22   13   14 1
  23   13   44 1
  24   14   15 1
  25   14   27 2
  26   15   16 2
  27   15   45 1
  28   16   17 1
  29   16   26 1
  30   17   18 2
  31   17   46 1
  32   18   19 1
  33   18   47 1
  34   19   20 1
  35   19   26 2
  36   20   21 2
  37   20   48 1
  38   21   22 1
  39   21   25 1
  40   22   23 2
  41   22   49 1
  42   23   24 1
  43   23   50 1
  44   24   25 2
  45   24   51 1
  46   28   29 ar
  47   28   33 ar
  48   28   52 1
  49   29   30 ar
  50   30   31 ar
  51   31   32 ar
  52   31   53 1
  53   32   33 ar
  54   32   34 1
  55   34   54 1
  56   34   55 1
  57   35   36 1
  58   35   38 1
  59   35   37 1
  60   36   56 1
  61   36   57 1
  62   36   58 1
  63   37   59 1
  64   37   60 1
  65   37   61 1
  66   38   62 1
  67   38   63 1
  68   38   64 1

#	End of record

