#	Name: ASD01209270
#	Creating user name:	WinNT
#	Creation time:	15. 06. 2019 19:11

#	Modifying user name:	WinNT
#	Modification time:	15. 06. 2019 19:11

#	Program:	/corina/corina34_cracker 3.40 0067  02.08.2006

@<TRIPOS>MOLECULE
ASD01209270
  77   79    0    0    0
SMALL
NO_CHARGES


@<TRIPOS>ATOM
   1 O1             0.8141     0.2565     0.8174 O.3     
   2 O2             2.8595     1.2696     2.1220 O.3     
   3 C3             7.8972     8.6812     3.1067 C.ar    
   4 C4             8.9028     9.2989     2.3777 C.ar    
   5 C5             9.0248     9.0604     1.0163 C.ar    
   6 C6             8.1423     8.2039     0.3795 C.ar    
   7 C7             7.1292     7.5804     1.1091 C.ar    
   8 C8             7.0134     7.8189     2.4788 C.ar    
   9 O9            10.0118     9.6681     0.3067 O.3     
  10 C10            6.1846     6.6656     0.4335 C.2     
  11 N11            5.2069     6.0644     1.1400 N.am    
  12 O12            6.2897     6.4557    -0.7593 O.2     
  13 C13            4.3117     5.1976     0.4998 C.2     
  14 P14            2.0820     1.2431     0.7124 P.3     
  15 O15            2.9965     0.7602    -0.3464 O.2     
  16 C16            1.5110     2.9249     0.3016 C.3     
  17 N17            3.3210     4.5533     1.0704 N.2     
  18 C18            4.3139     4.8709    -0.8659 C.2     
  19 C19            3.2968     4.0076    -1.0876 C.2     
  20 N20            2.6698     3.7956     0.0887 N.pl3   
  21 O21            7.7824     8.9180     4.4401 O.3     
  22 C22            6.6578     8.3412     5.1069 C.3     
  23 C23            6.3279     9.1632     6.3545 C.3     
  24 O24            7.4080     9.0703     7.2855 O.3     
  25 C25            6.9889     6.9045     5.5157 C.3     
  26 C26           10.8117    10.6285     0.9994 C.3     
  27 C27           11.4029    11.6196    -0.0052 C.3     
  28 C28           10.2909    12.4123    -0.6426 C.ar    
  29 C29            9.8716    13.5985    -0.0700 C.ar    
  30 C30            3.5180     0.1256     2.6693 C.3     
  31 C31            4.1519     0.4956     4.0117 C.3     
  32 C32            0.9388    -1.1519     1.0242 C.3     
  33 C33           -0.4530    -1.7853     1.0746 C.3     
  34 C34            7.1999     9.8064     8.4925 C.3     
  35 C35            9.6941    11.9560    -1.8030 C.ar    
  36 C36            8.6741    12.6831    -2.3876 C.ar    
  37 C37            8.2506    13.8662    -1.8117 C.ar    
  38 C38            8.8516    14.3256    -0.6546 C.ar    
  39 C39           11.9452     9.9119     1.7361 C.3     
  40 H40            9.5925     9.9677     2.8711 H       
  41 H41            8.2375     8.0193    -0.6803 H       
  42 H42            6.2308     7.3384     3.0471 H       
  43 H43            5.1230     6.2319     2.0917 H       
  44 H44            0.9092     2.8925    -0.6066 H       
  45 H45            0.9094     3.3150     1.1225 H       
  46 H46            5.0051     5.2430    -1.6076 H       
  47 H47            3.0317     3.5679    -2.0377 H       
  48 H48            5.7991     8.3392     4.4356 H       
  49 H49            6.1790    10.2059     6.0737 H       
  50 H50            5.4180     8.7771     6.8139 H       
  51 H51            7.8477     6.9065     6.1870 H       
  52 H52            6.1311     6.4646     6.0243 H       
  53 H53            7.2240     6.3189     4.6269 H       
  54 H54           10.1933    11.1655     1.7186 H       
  55 H55           12.0830    12.2975     0.5104 H       
  56 H56           11.9482    11.0743    -0.7756 H       
  57 H57           10.3407    13.9570     0.8343 H       
  58 H58            2.7929    -0.6745     2.8181 H       
  59 H59            4.2939    -0.2107     1.9815 H       
  60 H60            4.6542    -0.3770     4.4292 H       
  61 H61            4.8771     1.2957     3.8628 H       
  62 H62            3.3760     0.8319     4.6995 H       
  63 H63            1.5081    -1.5905     0.2046 H       
  64 H64            1.4563    -1.3365     1.9656 H       
  65 H65           -0.9705    -1.6007     0.1331 H       
  66 H66           -0.3579    -2.8596     1.2323 H       
  67 H67           -1.0223    -1.3467     1.8941 H       
  68 H68            8.0639     9.6847     9.1459 H       
  69 H69            7.0691    10.8624     8.2561 H       
  70 H70            6.3081     9.4337     8.9963 H       
  71 H71           10.0249    11.0316    -2.2530 H       
  72 H72            8.2082    12.3270    -3.2946 H       
  73 H73            7.4540    14.4345    -2.2686 H       
  74 H74            8.5208    15.2500    -0.2046 H       
  75 H75           12.5553    10.6445     2.2645 H       
  76 H76           11.5240     9.2059     2.4518 H       
  77 H77           12.5636     9.3749     1.0169 H       
@<TRIPOS>BOND
   1    1   32 1
   2    1   14 1
   3    2   30 1
   4    2   14 1
   5    3    4 ar
   6    3   21 1
   7    3    8 ar
   8    4    5 ar
   9    4   40 1
  10    5    6 ar
  11    5    9 1
  12    6    7 ar
  13    6   41 1
  14    7    8 ar
  15    7   10 1
  16    8   42 1
  17    9   26 1
  18   10   11 am
  19   10   12 2
  20   11   13 1
  21   11   43 1
  22   13   17 2
  23   13   18 1
  24   14   15 2
  25   14   16 1
  26   16   20 1
  27   16   44 1
  28   16   45 1
  29   17   20 1
  30   18   19 2
  31   18   46 1
  32   19   20 1
  33   19   47 1
  34   21   22 1
  35   22   23 1
  36   22   25 1
  37   22   48 1
  38   23   24 1
  39   23   49 1
  40   23   50 1
  41   24   34 1
  42   25   51 1
  43   25   52 1
  44   25   53 1
  45   26   27 1
  46   26   39 1
  47   26   54 1
  48   27   28 1
  49   27   55 1
  50   27   56 1
  51   28   29 ar
  52   28   35 ar
  53   29   38 ar
  54   29   57 1
  55   30   31 1
  56   30   58 1
  57   30   59 1
  58   31   60 1
  59   31   61 1
  60   31   62 1
  61   32   33 1
  62   32   63 1
  63   32   64 1
  64   33   65 1
  65   33   66 1
  66   33   67 1
  67   34   68 1
  68   34   69 1
  69   34   70 1
  70   35   36 ar
  71   35   71 1
  72   36   37 ar
  73   36   72 1
  74   37   38 ar
  75   37   73 1
  76   38   74 1
  77   39   75 1
  78   39   76 1
  79   39   77 1

#	End of record

