#	Name: ASD09190001
#	Creating user name:	WinNT
#	Creation time:	15. 06. 2019 21:21

#	Modifying user name:	WinNT
#	Modification time:	15. 06. 2019 21:21

#	Program:	/corina/corina34_cracker 3.40 0067  02.08.2006

@<TRIPOS>MOLECULE
ASD09190001
  15   14    0    0    0
SMALL
NO_CHARGES


@<TRIPOS>ATOM
   1 P1            -0.0192     1.5624     0.0106 P.3     
   2 O2             0.0021    -0.0041     0.0020 O.co2   
   3 O3             1.4506     2.1047    -0.0005 O.co2   
   4 O4            -0.7769     2.0814    -1.2586 O.co2   
   5 O5            -0.7728     2.0816     1.3353 O.3     
   6 C6            -0.3239     1.7749     2.6568 C.3     
   7 C7            -1.2489     2.4115     3.6619 C.2     
   8 C8            -0.9934     2.2377     5.1369 C.3     
   9 O9            -1.9994     2.9296     5.8793 O.3     
  10 O10           -2.1949     3.0608     3.2854 O.2     
  11 H11           -0.3221     0.6941     2.7982 H       
  12 H12            0.6857     2.1613     2.7965 H       
  13 H13           -1.0212     1.1774     5.3880 H       
  14 H14           -0.0134     2.6446     5.3863 H       
  15 H15           -1.8975     2.8608     6.8385 H       
@<TRIPOS>BOND
   1    1    2 ar
   2    1    3 ar
   3    1    4 ar
   4    1    5 1
   5    5    6 1
   6    6    7 1
   7    6   11 1
   8    6   12 1
   9    7    8 1
  10    7   10 2
  11    8    9 1
  12    8   13 1
  13    8   14 1
  14    9   15 1

#	End of record

