#	Name: ASD00840144
#	Creating user name:	WinNT
#	Creation time:	15. 06. 2019 18:37

#	Modifying user name:	WinNT
#	Modification time:	15. 06. 2019 18:37

#	Program:	/corina/corina34_cracker 3.40 0067  02.08.2006

@<TRIPOS>MOLECULE
ASD00840144
  18   19    0    0    0
SMALL
NO_CHARGES


@<TRIPOS>ATOM
   1 C1            -0.0158     1.3154     0.0093 C.ar    
   2 N2             0.0021    -0.0041     0.0020 N.ar    
   3 C3             1.1304    -0.6883    -0.0124 C.ar    
   4 C4             2.3494    -0.0434    -0.0206 C.ar    
   5 C5             2.3771     1.3547    -0.0133 C.ar    
   6 C6             1.1580     2.0394     0.0020 C.ar    
   7 C7             3.6640     2.0909    -0.0211 C.2     
   8 C8             3.8153     3.4418    -0.0153 C.2     
   9 N9             5.1588     3.6862    -0.0263 N.pl3   
  10 C10            5.7883     2.4903    -0.0385 C.2     
  11 N11            4.8958     1.5407    -0.0295 N.2     
  12 H12           -0.9624     1.8354     0.0166 H       
  13 H13            1.0987    -1.7679    -0.0175 H       
  14 H14            3.2689    -0.6097    -0.0320 H       
  15 H15            1.1359     3.1192     0.0076 H       
  16 H16            3.0260     4.1789    -0.0044 H       
  17 H17            5.5835     4.5583    -0.0260 H       
  18 H18            6.8584     2.3450    -0.0491 H       
@<TRIPOS>BOND
   1    1    2 ar
   2    1    6 ar
   3    1   12 1
   4    2    3 ar
   5    3    4 ar
   6    3   13 1
   7    4    5 ar
   8    4   14 1
   9    5    6 ar
  10    5    7 1
  11    6   15 1
  12    7    8 2
  13    7   11 1
  14    8    9 1
  15    8   16 1
  16    9   10 1
  17    9   17 1
  18   10   11 2
  19   10   18 1

#	End of record

