#	Name: ASD01420116
#	Creating user name:	WinNT
#	Creation time:	15. 06. 2019 19:20

#	Modifying user name:	WinNT
#	Modification time:	15. 06. 2019 19:20

#	Program:	/corina/corina34_cracker 3.40 0067  02.08.2006

@<TRIPOS>MOLECULE
ASD01420116
  73   77    0    0    0
SMALL
NO_CHARGES


@<TRIPOS>ATOM
   1 C1            -0.0144     1.2120     0.0087 C.2     
   2 O2             0.1295     0.0132     0.1547 O.2     
   3 C3             1.0482     3.4384    -0.4755 C.3     
   4 N4             1.0607     2.0009    -0.1867 N.am    
   5 C5             2.4665     1.5858    -0.1513 C.3     
   6 C6             3.3116     2.8043    -0.4252 C.ar    
   7 C7             4.6836     2.9612    -0.5037 C.ar    
   8 C8             5.2260     4.2102    -0.7735 C.ar    
   9 C9             4.3869     5.3009    -0.9642 C.ar    
  10 C10            3.0188     5.1381    -0.8847 C.ar    
  11 C11            2.4800     3.8908    -0.6154 C.ar    
  12 N12            6.6114     4.3700    -0.8525 N.3     
  13 C13            6.9643     5.7650    -1.1452 C.3     
  14 C14            8.4744     5.8745    -1.3681 C.3     
  15 C15            9.2069     5.3961    -0.1115 C.3     
  16 C16            8.7850     3.9573     0.1990 C.3     
  17 C17            7.2659     3.9034     0.3765 C.3     
  18 N18           10.6572     5.4438    -0.3405 N.3     
  19 C19           11.3952     5.1043     0.8841 C.3     
  20 C20           12.8959     5.0875     0.5841 C.3     
  21 N21           13.3054     6.4033     0.0735 N.3     
  22 C22           12.5674     6.7428    -1.1511 C.3     
  23 C23           11.0667     6.7595    -0.8511 C.3     
  24 C24           14.7557     6.4510    -0.1555 C.3     
  25 C25           -1.3642     1.8009     0.0394 C.ar    
  26 C26           -2.2646     1.4464     1.0558 C.ar    
  27 C27           -3.5308     2.0049     1.0775 C.ar    
  28 C28           -3.9068     2.9112     0.0968 C.ar    
  29 C29           -3.0152     3.2636    -0.9116 C.ar    
  30 C30           -1.7517     2.7197    -0.9407 C.ar    
  31 C31           -3.4329     4.2490    -1.9725 C.3     
  32 C32           -2.5005     5.4616    -1.9378 C.3     
  33 C33           -3.3523     3.5828    -3.3475 C.3     
  34 O34           -5.1495     3.4560     0.1208 O.3     
  35 O35           -1.8954     0.5593     2.0134 O.3     
  36 H36            0.5097     3.6238    -1.4048 H       
  37 H37            0.5694     3.9755     0.3433 H       
  38 H38            2.7079     1.1824     0.8321 H       
  39 H39            2.6482     0.8307    -0.9161 H       
  40 H40            5.3333     2.1115    -0.3546 H       
  41 H41            4.8045     6.2745    -1.1739 H       
  42 H42            2.3663     5.9859    -1.0326 H       
  43 H43            6.4401     6.0915    -2.0434 H       
  44 H44            6.6744     6.3969    -0.3057 H       
  45 H45            8.7631     5.2536    -2.2162 H       
  46 H46            8.7382     6.9127    -1.5700 H       
  47 H47            8.9484     6.0408     0.7285 H       
  48 H48            9.0785     3.3062    -0.6244 H       
  49 H49            9.2706     3.6257     1.1168 H       
  50 H50            6.9745     4.5439     1.2088 H       
  51 H51            6.9606     2.8777     0.5836 H       
  52 H52           11.1863     5.8484     1.6527 H       
  53 H53           11.0836     4.1206     1.2356 H       
  54 H54           13.4469     4.8644     1.4977 H       
  55 H55           13.1085     4.3246    -0.1648 H       
  56 H56           12.8790     7.7264    -1.5026 H       
  57 H57           12.7763     5.9986    -1.9197 H       
  58 H58           10.5157     6.9827    -1.7647 H       
  59 H59           10.8541     7.5225    -0.1022 H       
  60 H60           15.0334     5.6908    -0.8857 H       
  61 H61           15.0317     7.4355    -0.5331 H       
  62 H62           15.2780     6.2620     0.7823 H       
  63 H63           -4.2266     1.7346     1.8580 H       
  64 H64           -1.0610     2.9992    -1.7225 H       
  65 H65           -4.4568     4.5725    -1.7850 H       
  66 H66           -2.5580     5.9362    -0.9582 H       
  67 H67           -1.4766     5.1381    -2.1253 H       
  68 H68           -2.8027     6.1743    -2.7051 H       
  69 H69           -4.0165     2.7190    -3.3722 H       
  70 H70           -3.6544     4.2956    -4.1148 H       
  71 H71           -2.3284     3.2594    -3.5350 H       
  72 H72           -5.2088     4.2782     0.6264 H       
  73 H73           -1.4867     0.9660     2.7898 H       
@<TRIPOS>BOND
   1    1    2 2
   2    1    4 am
   3    1   25 1
   4    3    4 1
   5    3   11 1
   6    3   36 1
   7    3   37 1
   8    4    5 1
   9    5    6 1
  10    5   38 1
  11    5   39 1
  12    6    7 ar
  13    6   11 ar
  14    7    8 ar
  15    7   40 1
  16    8    9 ar
  17    8   12 1
  18    9   10 ar
  19    9   41 1
  20   10   11 ar
  21   10   42 1
  22   12   13 1
  23   12   17 1
  24   13   14 1
  25   13   43 1
  26   13   44 1
  27   14   15 1
  28   14   45 1
  29   14   46 1
  30   15   16 1
  31   15   18 1
  32   15   47 1
  33   16   17 1
  34   16   48 1
  35   16   49 1
  36   17   50 1
  37   17   51 1
  38   18   19 1
  39   18   23 1
  40   19   20 1
  41   19   52 1
  42   19   53 1
  43   20   21 1
  44   20   54 1
  45   20   55 1
  46   21   22 1
  47   21   24 1
  48   22   23 1
  49   22   56 1
  50   22   57 1
  51   23   58 1
  52   23   59 1
  53   24   60 1
  54   24   61 1
  55   24   62 1
  56   25   26 ar
  57   25   30 ar
  58   26   27 ar
  59   26   35 1
  60   27   28 ar
  61   27   63 1
  62   28   29 ar
  63   28   34 1
  64   29   30 ar
  65   29   31 1
  66   30   64 1
  67   31   32 1
  68   31   33 1
  69   31   65 1
  70   32   66 1
  71   32   67 1
  72   32   68 1
  73   33   69 1
  74   33   70 1
  75   33   71 1
  76   34   72 1
  77   35   73 1

#	End of record

