#	Name: ASD01881467
#	Creating user name:	WinNT
#	Creation time:	15. 06. 2019 19:42

#	Modifying user name:	WinNT
#	Modification time:	15. 06. 2019 19:42

#	Program:	/corina/corina34_cracker 3.40 0067  02.08.2006

@<TRIPOS>MOLECULE
ASD01881467
  54   58    0    0    0
SMALL
NO_CHARGES


@<TRIPOS>ATOM
   1 C1             0.0217     1.5028     0.0499 C.3     
   2 C2             1.1044    10.1116     4.2522 C.ar    
   3 C3             1.2933     9.0235     3.4270 C.ar    
   4 C4            -0.0115    10.1735     5.0785 C.ar    
   5 C5            -0.9408     9.1375     5.0753 C.ar    
   6 C6            -0.7561     8.0473     4.2518 C.ar    
   7 C7             0.3637     7.9836     3.4215 C.ar    
   8 C8             0.5645     6.8138     2.5353 C.2     
   9 C9             0.5341     6.9654     1.1615 C.2     
  10 C10            0.7954     5.5299     3.0870 C.2     
  11 C11            0.9776     4.4682     2.2799 C.2     
  12 N12            0.9435     4.6077     0.9222 N.pl3   
  13 C13            0.7279     5.8369     0.3471 C.2     
  14 C14            1.0908     3.7343    -0.1123 C.2     
  15 N15            0.9631     4.4136    -1.2227 N.2     
  16 N16            0.7493     5.6559    -0.9646 N.2     
  17 C17            1.3533     2.2547     0.0016 C.3     
  18 N18           -0.2003    11.2763     5.9129 N.3     
  19 C19            0.0733    -0.0263     0.0475 C.3     
  20 C20           -0.3042     0.7244     1.3261 C.3     
  21 Cl21          -2.3331     9.2179     6.1092 Cl      
  22 C22           -1.3731    12.0576     5.4959 C.3     
  23 C23           -1.5919    13.2090     6.4801 C.3     
  24 N24           -0.3885    14.0515     6.5198 N.3     
  25 C25            0.7843    13.2703     6.9368 C.3     
  26 C26            1.0031    12.1188     5.9526 C.3     
  27 C27           -0.5872    15.2122     7.3980 C.3     
  28 C28            0.2962     8.3205     0.5467 C.3     
  29 F29            1.5248     8.9192     0.2477 F       
  30 F30           -0.4499     8.1753    -0.6278 F       
  31 F31           -0.4073     9.1252     1.4494 F       
  32 H32           -0.8065     1.9792    -0.4747 H       
  33 H33            1.8264    10.9147     4.2598 H       
  34 H34            2.1605     8.9765     2.7850 H       
  35 H35           -1.4772     7.2432     4.2496 H       
  36 H36            0.8258     5.4024     4.1591 H       
  37 H37            1.1532     3.4940     2.7117 H       
  38 H38            1.9167     2.0548     0.9129 H       
  39 H39            1.9283     1.9202    -0.8619 H       
  40 H40           -0.7211    -0.5559    -0.4783 H       
  41 H41            1.0560    -0.4966     0.0115 H       
  42 H42            0.4301     0.7480     2.1313 H       
  43 H43           -1.3469     0.6887     1.6415 H       
  44 H44           -1.2054    12.4600     4.4969 H       
  45 H45           -2.2534    11.4149     5.4864 H       
  46 H46           -2.4440    13.8069     6.1567 H       
  47 H47           -1.7866    12.8058     7.4740 H       
  48 H48            1.6646    13.9129     6.9463 H       
  49 H49            0.6166    12.8678     7.9359 H       
  50 H50            1.8552    11.5209     6.2761 H       
  51 H51            1.1978    12.5220     4.9588 H       
  52 H52           -0.8074    14.8695     8.4090 H       
  53 H53            0.3184    15.8187     7.4091 H       
  54 H54           -1.4202    15.8098     7.0275 H       
@<TRIPOS>BOND
   1    1   19 1
   2    1   17 1
   3    1   20 1
   4    1   32 1
   5    2    3 ar
   6    2    4 ar
   7    2   33 1
   8    3    7 ar
   9    3   34 1
  10    4    5 ar
  11    4   18 1
  12    5    6 ar
  13    5   21 1
  14    6    7 ar
  15    6   35 1
  16    7    8 1
  17    8    9 2
  18    8   10 1
  19    9   28 1
  20    9   13 1
  21   10   11 2
  22   10   36 1
  23   11   12 1
  24   11   37 1
  25   12   13 1
  26   12   14 1
  27   13   16 2
  28   14   15 2
  29   14   17 1
  30   15   16 1
  31   17   38 1
  32   17   39 1
  33   18   22 1
  34   18   26 1
  35   19   20 1
  36   19   40 1
  37   19   41 1
  38   20   42 1
  39   20   43 1
  40   22   23 1
  41   22   44 1
  42   22   45 1
  43   23   24 1
  44   23   46 1
  45   23   47 1
  46   24   25 1
  47   24   27 1
  48   25   26 1
  49   25   48 1
  50   25   49 1
  51   26   50 1
  52   26   51 1
  53   27   52 1
  54   27   53 1
  55   27   54 1
  56   28   29 1
  57   28   30 1
  58   28   31 1

#	End of record

