#	Name: ASD05720205
#	Creating user name:	WinNT
#	Creation time:	15. 06. 2019 21:02

#	Modifying user name:	WinNT
#	Modification time:	15. 06. 2019 21:02

#	Program:	/corina/corina34_cracker 3.40 0067  02.08.2006

@<TRIPOS>MOLECULE
ASD05720205
  23   24    0    0    0
SMALL
NO_CHARGES


@<TRIPOS>ATOM
   1 O1            -0.0161     1.3335     0.0094 O.3     
   2 C2             0.0021    -0.0041     0.0020 C.2     
   3 N3             1.2348    -0.5293    -0.0126 N.am    
   4 C4             2.2183     0.5645    -0.0161 C.3     
   5 C5             1.3508     1.8380    -0.0010 C.3     
   6 O6            -1.0070    -0.6809     0.0087 O.2     
   7 C7             3.0621     0.5136    -1.2636 C.ar    
   8 C8             4.4304     0.7054    -1.1730 C.ar    
   9 C9             5.1975     0.6558    -2.3292 C.ar    
  10 C10            4.5576     0.4147    -3.5351 C.ar    
  11 C11            3.1877     0.2329    -3.5467 C.ar    
  12 N12            2.4902     0.2816    -2.4286 N.ar    
  13 C13            2.4829    -0.0293    -4.8527 C.3     
  14 F14            5.0113     0.9382     0.0244 F       
  15 H15            1.4444    -1.4764    -0.0197 H       
  16 H16            2.8457     0.5181     0.8740 H       
  17 H17            1.5314     2.4340    -0.8956 H       
  18 H18            1.5485     2.4243     0.8964 H       
  19 H19            6.2668     0.8020    -2.2901 H       
  20 H20            5.1227     0.3697    -4.4544 H       
  21 H21            2.4459    -1.1031    -5.0364 H       
  22 H22            1.4683     0.3661    -4.8038 H       
  23 H23            3.0247     0.4594    -5.6625 H       
@<TRIPOS>BOND
   1    1    2 1
   2    1    5 1
   3    2    3 am
   4    2    6 2
   5    3    4 1
   6    3   15 1
   7    4    5 1
   8    4    7 1
   9    4   16 1
  10    5   17 1
  11    5   18 1
  12    7    8 ar
  13    7   12 ar
  14    8    9 ar
  15    8   14 1
  16    9   10 ar
  17    9   19 1
  18   10   11 ar
  19   10   20 1
  20   11   12 ar
  21   11   13 1
  22   13   21 1
  23   13   22 1
  24   13   23 1

#	End of record

