#	Name: ASD03730224
#	Creating user name:	WinNT
#	Creation time:	15. 06. 2019 20:44

#	Modifying user name:	WinNT
#	Modification time:	15. 06. 2019 20:44

#	Program:	/corina/corina34_cracker 3.40 0067  02.08.2006

@<TRIPOS>MOLECULE
ASD03730224
  63   68    0    0    0
SMALL
NO_CHARGES


@<TRIPOS>ATOM
   1 O1             1.3096     2.0312    -1.7592 O.3     
   2 C2             1.2936     0.6001    -1.9165 C.3     
   3 O3             2.6790     0.2621    -2.1148 O.3     
   4 C4             3.3883     1.2408    -1.4792 C.ar    
   5 C5             2.5465     2.3295    -1.2635 C.ar    
   6 C6             4.7050     1.2906    -1.0583 C.ar    
   7 C7             5.1994     2.4253    -0.4224 C.ar    
   8 C8             4.3527     3.5117    -0.2239 C.ar    
   9 C9             3.0372     3.4620    -0.6355 C.ar    
  10 O10            6.4430     2.6700     0.0815 O.3     
  11 C11            5.1749     4.5796     0.4465 C.3     
  12 C12            6.6163     4.0903     0.2491 C.3     
  13 N13            4.5405     6.7411     0.8308 N.am    
  14 C14            4.9562     5.9335    -0.1653 C.2     
  15 C15            4.8319     4.7394     1.8975 C.ar    
  16 C16            4.8288     3.8746     2.9836 C.ar    
  17 C17            4.4472     4.3422     4.2411 C.ar    
  18 C18            4.0751     5.6628     4.3960 C.ar    
  19 C19            4.0782     6.5218     3.3159 C.ar    
  20 C20            4.4580     6.0694     2.0533 C.ar    
  21 O21            5.1215     6.2402    -1.3270 O.2     
  22 C22            4.2129     8.1578     0.6523 C.3     
  23 C23            2.7295     8.2985     0.3052 C.3     
  24 C24            2.3874     9.7780     0.1188 C.3     
  25 C25            0.9039     9.9187    -0.2284 C.3     
  26 C26            0.5619    11.3983    -0.4148 C.3     
  27 C27            5.9554    -0.1071     2.4888 C.ar    
  28 N28            6.8986     0.8186     2.5562 N.ar    
  29 C29            6.5846     2.0976     2.7131 C.ar    
  30 C30            5.2297     2.4575     2.8072 C.ar    
  31 C31            4.2725     1.4475     2.7308 C.ar    
  32 N32            4.6698     0.1952     2.5736 N.ar    
  33 O33            7.5539     3.0411     2.7820 O.3     
  34 C34            8.9062     2.5908     2.6782 C.3     
  35 O35            6.3162    -1.4019     2.3224 O.3     
  36 C36            5.2631    -2.3654     2.2553 C.3     
  37 H37            0.9072     0.1203    -1.0173 H       
  38 H38            0.7019     0.3171    -2.7871 H       
  39 H39            5.3535     0.4430    -1.2239 H       
  40 H40            2.3879     4.3085    -0.4673 H       
  41 H41            7.2221     4.3051     1.1295 H       
  42 H42            7.0572     4.5345    -0.6433 H       
  43 H43            4.4425     3.6742     5.0897 H       
  44 H44            3.7791     6.0259     5.3691 H       
  45 H45            3.7842     7.5523     3.4499 H       
  46 H46            4.4230     8.6984     1.5752 H       
  47 H47            4.8160     8.5711    -0.1561 H       
  48 H48            2.5195     7.7579    -0.6178 H       
  49 H49            2.1264     7.8852     1.1136 H       
  50 H50            2.5974    10.3186     1.0417 H       
  51 H51            2.9905    10.1913    -0.6897 H       
  52 H52            0.6939     9.3781    -1.1513 H       
  53 H53            0.3009     9.5054     0.5801 H       
  54 H54            1.1649    11.8116    -1.2232 H       
  55 H55           -0.4950    11.4985    -0.6621 H       
  56 H56            0.7719    11.9388     0.5081 H       
  57 H57            3.2209     1.6837     2.7993 H       
  58 H58            9.1195     1.8921     3.4872 H       
  59 H59            9.0505     2.0920     1.7198 H       
  60 H60            9.5799     3.4447     2.7484 H       
  61 H61            4.6866    -2.3386     3.1800 H       
  62 H62            4.6108    -2.1327     1.4136 H       
  63 H63            5.6885    -3.3600     2.1212 H       
@<TRIPOS>BOND
   1    1    2 1
   2    1    5 1
   3    2    3 1
   4    2   37 1
   5    2   38 1
   6    3    4 1
   7    4    5 ar
   8    4    6 ar
   9    5    9 ar
  10    6    7 ar
  11    6   39 1
  12    7    8 ar
  13    7   10 1
  14    8    9 ar
  15    8   11 1
  16    9   40 1
  17   10   12 1
  18   11   12 1
  19   11   14 1
  20   11   15 1
  21   12   41 1
  22   12   42 1
  23   13   14 am
  24   13   20 1
  25   13   22 1
  26   14   21 2
  27   15   16 ar
  28   15   20 ar
  29   16   17 ar
  30   16   30 1
  31   17   18 ar
  32   17   43 1
  33   18   19 ar
  34   18   44 1
  35   19   20 ar
  36   19   45 1
  37   22   23 1
  38   22   46 1
  39   22   47 1
  40   23   24 1
  41   23   48 1
  42   23   49 1
  43   24   25 1
  44   24   50 1
  45   24   51 1
  46   25   26 1
  47   25   52 1
  48   25   53 1
  49   26   54 1
  50   26   55 1
  51   26   56 1
  52   27   28 ar
  53   27   32 ar
  54   27   35 1
  55   28   29 ar
  56   29   30 ar
  57   29   33 1
  58   30   31 ar
  59   31   32 ar
  60   31   57 1
  61   33   34 1
  62   34   58 1
  63   34   59 1
  64   34   60 1
  65   35   36 1
  66   36   61 1
  67   36   62 1
  68   36   63 1

#	End of record

