#	Name: ASD03730266
#	Creating user name:	WinNT
#	Creation time:	15. 06. 2019 20:44

#	Modifying user name:	WinNT
#	Modification time:	15. 06. 2019 20:44

#	Program:	/corina/corina34_cracker 3.40 0067  02.08.2006

@<TRIPOS>MOLECULE
ASD03730266
  62   67    0    0    0
SMALL
NO_CHARGES


@<TRIPOS>ATOM
   1 N1            -0.4668     1.2350     1.2521 N.3     
   2 C2            -0.4075    -0.2442     1.3155 C.3     
   3 O3             0.6886    -0.5720     0.4427 O.3     
   4 C4             1.5290     0.5037     0.4497 C.ar    
   5 C5             0.8496     1.6212     0.9329 C.ar    
   6 C6             2.8567     0.6180     0.0735 C.ar    
   7 C7             3.5159     1.8398     0.1674 C.ar    
   8 C8             2.8206     2.9504     0.6358 C.ar    
   9 C9             1.5005     2.8408     1.0209 C.ar    
  10 O10            4.8102     2.1558    -0.1263 O.3     
  11 C11            3.7788     4.1100     0.5860 C.3     
  12 C12            4.9260     3.5826    -0.2867 C.3     
  13 N13            3.2677     6.3118     0.9238 N.am    
  14 C14            3.1512     5.3407    -0.0037 C.2     
  15 C15            4.2532     4.5201     1.9481 C.ar    
  16 C16            4.9035     3.8545     2.9783 C.ar    
  17 C17            5.2170     4.5354     4.1544 C.ar    
  18 C18            4.8778     5.8675     4.2853 C.ar    
  19 C19            4.2311     6.5285     3.2609 C.ar    
  20 C20            3.9103     5.8610     2.0799 C.ar    
  21 O21            2.6408     5.4412    -1.0994 O.2     
  22 C22           -0.8832     1.8010     2.5421 C.3     
  23 C23            0.2352     1.6087     3.5683 C.3     
  24 C24           -0.1986     2.1981     4.9119 C.3     
  25 C25            0.9198     2.0058     5.9381 C.3     
  26 C26            0.4860     2.5953     7.2817 C.3     
  27 C27            5.2635     2.4230     2.8289 C.ar    
  28 C28            6.1588     2.0281     1.8363 C.ar    
  29 C29            6.4919     0.6968     1.7001 C.ar    
  30 C30            5.9364    -0.2497     2.5504 C.ar    
  31 C31            5.0440     0.1406     3.5396 C.ar    
  32 C32            4.7115     1.4711     3.6844 C.ar    
  33 O33            6.2665    -1.5606     2.4138 O.3     
  34 C34            5.6581    -2.4809     3.3221 C.3     
  35 H35           -0.2012    -0.5771     2.3327 H       
  36 H36           -1.3355    -0.6819     0.9477 H       
  37 H37            3.3852    -0.2485    -0.2957 H       
  38 H38            0.9733     3.7076     1.3913 H       
  39 H39            5.8882     3.9368     0.0833 H       
  40 H40            4.7822     3.8678    -1.3288 H       
  41 H41            2.9436     7.2179     0.8027 H       
  42 H42            5.7226     4.0229     4.9595 H       
  43 H43            5.1206     6.3958     5.1954 H       
  44 H44            3.9711     7.5704     3.3753 H       
  45 H45           -1.0881     2.8649     2.4230 H       
  46 H46           -1.7843     1.2939     2.8874 H       
  47 H47            0.4400     0.5447     3.6874 H       
  48 H48            1.1362     2.1157     3.2230 H       
  49 H49           -0.4034     3.2620     4.7928 H       
  50 H50           -1.0996     1.6911     5.2572 H       
  51 H51            1.1246     0.9419     6.0572 H       
  52 H52            1.8208     2.5128     5.5928 H       
  53 H53           -0.4150     2.0882     7.6270 H       
  54 H54            1.2828     2.4583     8.0128 H       
  55 H55            0.2812     3.6592     7.1626 H       
  56 H56            6.5910     2.7639     1.1744 H       
  57 H57            7.1854     0.3902     0.9310 H       
  58 H58            4.6131    -0.5980     4.1994 H       
  59 H59            4.0209     1.7748     4.4572 H       
  60 H60            5.9291    -2.2155     4.3440 H       
  61 H61            4.5746    -2.4385     3.2109 H       
  62 H62            6.0065    -3.4904     3.1043 H       
@<TRIPOS>BOND
   1    1    2 1
   2    1    5 1
   3    1   22 1
   4    2    3 1
   5    2   35 1
   6    2   36 1
   7    3    4 1
   8    4    5 ar
   9    4    6 ar
  10    5    9 ar
  11    6    7 ar
  12    6   37 1
  13    7    8 ar
  14    7   10 1
  15    8    9 ar
  16    8   11 1
  17    9   38 1
  18   10   12 1
  19   11   12 1
  20   11   14 1
  21   11   15 1
  22   12   39 1
  23   12   40 1
  24   13   14 am
  25   13   20 1
  26   13   41 1
  27   14   21 2
  28   15   16 ar
  29   15   20 ar
  30   16   17 ar
  31   16   27 1
  32   17   18 ar
  33   17   42 1
  34   18   19 ar
  35   18   43 1
  36   19   20 ar
  37   19   44 1
  38   22   23 1
  39   22   45 1
  40   22   46 1
  41   23   24 1
  42   23   47 1
  43   23   48 1
  44   24   25 1
  45   24   49 1
  46   24   50 1
  47   25   26 1
  48   25   51 1
  49   25   52 1
  50   26   53 1
  51   26   54 1
  52   26   55 1
  53   27   28 ar
  54   27   32 ar
  55   28   29 ar
  56   28   56 1
  57   29   30 ar
  58   29   57 1
  59   30   31 ar
  60   30   33 1
  61   31   32 ar
  62   31   58 1
  63   32   59 1
  64   33   34 1
  65   34   60 1
  66   34   61 1
  67   34   62 1

#	End of record

