#	Name: ASD04590529
#	Creating user name:	WinNT
#	Creation time:	15. 06. 2019 20:51

#	Modifying user name:	WinNT
#	Modification time:	15. 06. 2019 20:51

#	Program:	/corina/corina34_cracker 3.40 0067  02.08.2006

@<TRIPOS>MOLECULE
ASD04590529
  63   68    0    0    0
SMALL
NO_CHARGES


@<TRIPOS>ATOM
   1 C1            -0.0167     1.3834     0.0096 C.ar    
   2 C2             0.0021    -0.0041     0.0020 C.ar    
   3 C3            -2.3904    -0.0461     0.0246 C.ar    
   4 C4            -2.4092     1.3597     0.0439 C.ar    
   5 C5            -1.2148     2.0663     0.0305 C.ar    
   6 N6            -3.6798    -0.4642     0.0445 N.2     
   7 C7            -4.4793     0.5746     0.0744 C.2     
   8 N8            -3.7408     1.7275     0.0753 N.pl3   
   9 C9            -5.9552     0.5106     0.1032 C.2     
  10 C10           -6.7363    -0.6682     0.1037 C.2     
  11 C11           -8.0404    -0.2997     0.1346 C.2     
  12 N12           -8.0893     1.0582     0.1530 N.pl3   
  13 N13           -6.7752     1.5426     0.1386 N.2     
  14 N14           -6.2483    -1.9847     0.0767 N.am    
  15 C15           -7.1084    -3.0223     0.0807 C.2     
  16 O16           -8.3071    -2.8185     0.1078 O.2     
  17 C17           -1.1632    -0.7168     0.0093 C.ar    
  18 C18           -6.5958    -4.4053     0.0523 C.ar    
  19 C19            1.2811     2.1494     0.0014 C.3     
  20 C20           -5.2207    -4.6405     0.0270 C.ar    
  21 N21            1.6895     2.4057    -1.3862 N.3     
  22 C22            2.8166     3.3482    -1.4381 C.3     
  23 C23            3.2476     3.5403    -2.8946 C.3     
  24 O24            2.1285     3.9918    -3.6620 O.3     
  25 C25            1.0128     3.0975    -3.6342 C.3     
  26 C26            0.5592     2.9009    -2.1852 C.3     
  27 C27           -7.4923    -5.4890     0.0564 C.ar    
  28 C28           -6.9805    -6.7795     0.0221 C.ar    
  29 C29           -5.6219    -7.0001    -0.0040 C.ar    
  30 C30           -4.7390    -5.9311     0.0006 C.ar    
  31 O31           -8.8502    -5.4977     0.1006 O.3     
  32 C32           -9.3307    -6.7755    -0.3509 C.3     
  33 C33           -8.1654    -7.7263     0.0117 C.3     
  34 C34          -10.6055    -7.1705     0.3971 C.3     
  35 C35           -9.5691    -6.7619    -1.8622 C.3     
  36 H36            0.9476    -0.5257    -0.0102 H       
  37 H37           -1.2234     3.1462     0.0367 H       
  38 H38           -4.0876     2.6332     0.0940 H       
  39 H39           -8.8897    -0.9669     0.1428 H       
  40 H40           -8.8946     1.5984     0.1761 H       
  41 H41           -5.2923    -2.1472     0.0551 H       
  42 H42           -1.1370    -1.7965     0.0029 H       
  43 H43            1.1466     3.0977     0.5216 H       
  44 H44            2.0512     1.5649     0.5047 H       
  45 H45           -4.5320    -3.8086     0.0279 H       
  46 H46            2.5091     4.3067    -1.0201 H       
  47 H47            3.6511     2.9497    -0.8611 H       
  48 H48            4.0453     4.2815    -2.9433 H       
  49 H49            3.6057     2.5923    -3.2962 H       
  50 H50            0.1942     3.5185    -4.2179 H       
  51 H51            1.3059     2.1367    -4.0574 H       
  52 H52           -0.2541     2.1760    -2.1536 H       
  53 H53            0.2156     3.8523    -1.7792 H       
  54 H54           -5.2419    -8.0109    -0.0240 H       
  55 H55           -3.6741    -6.1099    -0.0201 H       
  56 H56           -8.0410    -8.4976    -0.7484 H       
  57 H57           -8.3172    -8.1712     0.9951 H       
  58 H58          -11.3856    -6.4353     0.1991 H       
  59 H59          -10.9366    -8.1520     0.0577 H       
  60 H60          -10.4027    -7.2056     1.4675 H       
  61 H61           -8.6403    -6.5108    -2.3743 H       
  62 H62           -9.9076    -7.7463    -2.1854 H       
  63 H63          -10.3294    -6.0190    -2.1034 H       
@<TRIPOS>BOND
   1    1    2 ar
   2    1   19 1
   3    1    5 ar
   4    2   17 ar
   5    2   36 1
   6    3    4 ar
   7    3    6 1
   8    3   17 ar
   9    4    5 ar
  10    4    8 1
  11    5   37 1
  12    6    7 2
  13    7    8 1
  14    7    9 1
  15    8   38 1
  16    9   10 1
  17    9   13 2
  18   10   11 2
  19   10   14 1
  20   11   12 1
  21   11   39 1
  22   12   13 1
  23   12   40 1
  24   14   15 am
  25   14   41 1
  26   15   16 2
  27   15   18 1
  28   17   42 1
  29   18   27 ar
  30   18   20 ar
  31   19   21 1
  32   19   43 1
  33   19   44 1
  34   20   30 ar
  35   20   45 1
  36   21   22 1
  37   21   26 1
  38   22   23 1
  39   22   46 1
  40   22   47 1
  41   23   24 1
  42   23   48 1
  43   23   49 1
  44   24   25 1
  45   25   26 1
  46   25   50 1
  47   25   51 1
  48   26   52 1
  49   26   53 1
  50   27   28 ar
  51   27   31 1
  52   28   29 ar
  53   28   33 1
  54   29   30 ar
  55   29   54 1
  56   30   55 1
  57   31   32 1
  58   32   33 1
  59   32   34 1
  60   32   35 1
  61   33   56 1
  62   33   57 1
  63   34   58 1
  64   34   59 1
  65   34   60 1
  66   35   61 1
  67   35   62 1
  68   35   63 1

#	End of record

