#	Name: ASD04750004
#	Creating user name:	WinNT
#	Creation time:	15. 06. 2019 20:52

#	Modifying user name:	WinNT
#	Modification time:	15. 06. 2019 20:52

#	Program:	/corina/corina34_cracker 3.40 0067  02.08.2006

@<TRIPOS>MOLECULE
ASD04750004
  44   47    0    0    0
SMALL
NO_CHARGES


@<TRIPOS>ATOM
   1 C1             0.5570     1.5043    -2.8929 C.ar    
   2 C2             0.6072     0.1277    -3.0227 C.ar    
   3 C3             1.6581    -0.5815    -2.4817 C.ar    
   4 C4             2.6779     0.0906    -1.7985 C.ar    
   5 C5             2.6190     1.4777    -1.6728 C.ar    
   6 C6             1.5614     2.1764    -2.2194 C.ar    
   7 C7             3.8963    -0.4220    -1.1358 C.2     
   8 C8             4.6307     0.7094    -0.5694 C.2     
   9 C9             3.8287     1.9457    -0.9016 C.3     
  10 C10            5.7942     0.6586     0.1151 C.2     
  11 C11            6.4775     1.9039     0.4975 C.ar    
  12 C12            5.7355     3.0116     0.9214 C.ar    
  13 C13            7.8732     1.9849     0.4447 C.ar    
  14 C14            8.5061     3.1555     0.8052 C.ar    
  15 C15            7.7645     4.2485     1.2190 C.ar    
  16 C16            6.3836     4.1749     1.2786 C.ar    
  17 O17            4.2321    -1.5903    -1.0721 O.2     
  18 N18            4.6300     2.8591    -1.7272 N.3     
  19 C19            4.9328     2.2592    -3.0335 C.3     
  20 C20            5.0500     3.3585    -4.1039 C.3     
  21 C21            6.2995     1.5456    -2.9833 C.3     
  22 C22            6.9214     1.8175    -4.3756 C.3     
  23 C23            6.4838     3.2745    -4.6667 C.3     
  24 H24           -0.2661     2.0560    -3.3224 H       
  25 H25           -0.1794    -0.3926    -3.5489 H       
  26 H26            1.6943    -1.6560    -2.5847 H       
  27 H27            1.5180     3.2510    -2.1211 H       
  28 H28            3.5168     2.4463     0.0151 H       
  29 H29            6.2227    -0.2963     0.3815 H       
  30 H30            4.6580     2.9556     0.9685 H       
  31 H31            8.4533     1.1327     0.1227 H       
  32 H32            9.5835     3.2196     0.7650 H       
  33 H33            8.2663     5.1624     1.5008 H       
  34 H34            5.8120     5.0321     1.6025 H       
  35 H35            4.1664     3.7486    -1.8365 H       
  36 H36            4.1511     1.5514    -3.3093 H       
  37 H37            4.3257     3.1837    -4.8995 H       
  38 H38            4.8822     4.3371    -3.6540 H       
  39 H39            6.9233     1.9709    -2.1972 H       
  40 H40            6.1654     0.4751    -2.8279 H       
  41 H41            8.0080     1.7413    -4.3348 H       
  42 H42            6.5129     1.1352    -5.1210 H       
  43 H43            6.4843     3.4657    -5.7398 H       
  44 H44            7.1374     3.9791    -4.1524 H       
@<TRIPOS>BOND
   1    1    2 ar
   2    1    6 ar
   3    1   24 1
   4    2    3 ar
   5    2   25 1
   6    3    4 ar
   7    3   26 1
   8    4    5 ar
   9    4    7 1
  10    5    6 ar
  11    5    9 1
  12    6   27 1
  13    7    8 1
  14    7   17 2
  15    8    9 1
  16    8   10 2
  17    9   18 1
  18    9   28 1
  19   10   11 1
  20   10   29 1
  21   11   12 ar
  22   11   13 ar
  23   12   16 ar
  24   12   30 1
  25   13   14 ar
  26   13   31 1
  27   14   15 ar
  28   14   32 1
  29   15   16 ar
  30   15   33 1
  31   16   34 1
  32   18   19 1
  33   18   35 1
  34   19   20 1
  35   19   21 1
  36   19   36 1
  37   20   23 1
  38   20   37 1
  39   20   38 1
  40   21   22 1
  41   21   39 1
  42   21   40 1
  43   22   23 1
  44   22   41 1
  45   22   42 1
  46   23   43 1
  47   23   44 1

#	End of record

