#	Name: ASD01708016
#	Creating user name:	WinNT
#	Creation time:	15. 06. 2019 19:22

#	Modifying user name:	WinNT
#	Modification time:	15. 06. 2019 19:22

#	Program:	/corina/corina34_cracker 3.40 0067  02.08.2006

@<TRIPOS>MOLECULE
ASD01708016
  68   72    0    0    0
SMALL
NO_CHARGES


@<TRIPOS>ATOM
   1 C1            -0.0989    -1.7697    -0.9410 C.2     
   2 C2            -0.0145    -0.6207    -0.2530 C.2     
   3 O3             1.1301    -2.2470    -1.1987 O.3     
   4 C4             2.0779    -1.4324    -0.6913 C.ar    
   5 C5             1.4157    -0.3598    -0.0655 C.ar    
   6 C6             3.4622    -1.4728    -0.6852 C.ar    
   7 C7             4.1802    -0.4539    -0.0614 C.ar    
   8 C8             3.5090     0.6082     0.5585 C.ar    
   9 C9             2.1462     0.6550     0.5562 C.ar    
  10 C10            5.6557    -0.4944    -0.0533 C.2     
  11 N11            6.2970    -1.6764     0.0363 N.am    
  12 O12            6.2926     0.5386    -0.1276 O.2     
  13 C13            7.7618    -1.7643    -0.0836 C.3     
  14 C14            5.5644    -2.9266     0.2634 C.3     
  15 C15            6.2764    -3.7508     1.3074 C.ar    
  16 C16            7.5447    -3.4422     1.7497 C.ar    
  17 C17            8.3134    -2.2537     1.2543 C.3     
  18 C18            5.6076    -4.8545     1.8232 C.ar    
  19 C19            6.2005    -5.6567     2.7737 C.ar    
  20 C20            7.4897    -5.3560     3.2222 C.ar    
  21 C21            8.1545    -4.2458     2.7039 C.ar    
  22 Cl22           9.7562    -3.8654     3.2548 Cl      
  23 Cl23           5.3520    -7.0310     3.4103 Cl      
  24 C24            8.1424    -6.2077     4.2371 C.2     
  25 N25            7.9904    -5.9315     5.5474 N.am    
  26 O26            8.8168    -7.1580     3.8905 O.2     
  27 C27            8.6378    -6.7763     6.5541 C.3     
  28 C28            7.7609    -7.9654     6.8511 C.2     
  29 O29            8.1544    -8.8817     7.7496 O.3     
  30 O30            6.7037    -8.0940     6.2805 O.2     
  31 C31            8.8531    -5.9686     7.8356 C.3     
  32 C32            9.8274    -4.8507     7.5671 C.2     
  33 C33            9.3520    -3.6845     7.2672 C.2     
  34 C34           11.2969    -5.1503     7.6683 C.3     
  35 N35           12.0590    -4.0189     7.1204 N.am    
  36 C36           11.6104    -2.6637     7.4849 C.3     
  37 C37           10.1873    -2.4786     6.9556 C.3     
  38 S38           13.3681    -4.2578     6.1346 S.o2    
  39 O39           14.1628    -3.0944     6.3193 O.2     
  40 O40           13.8531    -5.5421     6.5013 O.2     
  41 C41           12.6726    -4.2943     4.4596 C.3     
  42 H42           -1.0216    -2.2446    -1.2403 H       
  43 H43           -0.8356    -0.0103     0.0926 H       
  44 H44            3.9831    -2.2903    -1.1614 H       
  45 H45            4.0732     1.3931     1.0402 H       
  46 H46            1.6325     1.4752     1.0355 H       
  47 H47            8.0257    -2.4696    -0.8717 H       
  48 H48            8.1726    -0.7814    -0.3146 H       
  49 H49            4.5556    -2.6984     0.6074 H       
  50 H50            5.5104    -3.4896    -0.6684 H       
  51 H51            9.3592    -2.5322     1.1242 H       
  52 H52            8.2457    -1.4514     1.9890 H       
  53 H53            4.6117    -5.0859     1.4753 H       
  54 H54            7.4523    -5.1732     5.8240 H       
  55 H55            9.6002    -7.1202     6.1753 H       
  56 H56            7.5584    -9.6268     7.9066 H       
  57 H57            7.9022    -5.5504     8.1656 H       
  58 H58            9.2528    -6.6201     8.6128 H       
  59 H59            8.2782    -3.5723     7.2391 H       
  60 H60           11.5671    -5.2993     8.7137 H       
  61 H61           11.5248    -6.0522     7.1001 H       
  62 H62           11.6144    -2.5530     8.5692 H       
  63 H63           12.2717    -1.9229     7.0354 H       
  64 H64           10.2201    -2.3346     5.8757 H       
  65 H65            9.7413    -1.5993     7.4203 H       
  66 H66           12.1745    -3.3472     4.2522 H       
  67 H67           13.4737    -4.4494     3.7369 H       
  68 H68           11.9518    -5.1083     4.3832 H       
@<TRIPOS>BOND
   1    1    2 2
   2    1    3 1
   3    1   42 1
   4    2    5 1
   5    2   43 1
   6    3    4 1
   7    4    5 ar
   8    4    6 ar
   9    5    9 ar
  10    6    7 ar
  11    6   44 1
  12    7    8 ar
  13    7   10 1
  14    8    9 ar
  15    8   45 1
  16    9   46 1
  17   10   11 am
  18   10   12 2
  19   11   13 1
  20   11   14 1
  21   13   17 1
  22   13   47 1
  23   13   48 1
  24   14   15 1
  25   14   49 1
  26   14   50 1
  27   15   16 ar
  28   15   18 ar
  29   16   17 1
  30   16   21 ar
  31   17   51 1
  32   17   52 1
  33   18   19 ar
  34   18   53 1
  35   19   20 ar
  36   19   23 1
  37   20   21 ar
  38   20   24 1
  39   21   22 1
  40   24   25 am
  41   24   26 2
  42   25   27 1
  43   25   54 1
  44   27   28 1
  45   27   31 1
  46   27   55 1
  47   28   29 1
  48   28   30 2
  49   29   56 1
  50   31   32 1
  51   31   57 1
  52   31   58 1
  53   32   33 2
  54   32   34 1
  55   33   37 1
  56   33   59 1
  57   34   35 1
  58   34   60 1
  59   34   61 1
  60   35   36 1
  61   35   38 am
  62   36   37 1
  63   36   62 1
  64   36   63 1
  65   37   64 1
  66   37   65 1
  67   38   39 2
  68   38   40 2
  69   38   41 1
  70   41   66 1
  71   41   67 1
  72   41   68 1

#	End of record

