#	Name: ASD01100080
#	Creating user name:	WinNT
#	Creation time:	15. 06. 2019 18:58

#	Modifying user name:	WinNT
#	Modification time:	15. 06. 2019 18:58

#	Program:	/corina/corina34_cracker 3.40 0067  02.08.2006

@<TRIPOS>MOLECULE
ASD01100080
  35   37    0    0    0
SMALL
NO_CHARGES


@<TRIPOS>ATOM
   1 C1             0.2638     0.8871     0.9827 C.ar    
   2 C2            -0.0319     0.0386    -0.0693 C.ar    
   3 C3             0.8698    -0.1159    -1.1071 C.ar    
   4 C4             2.0654     0.5774    -1.0925 C.ar    
   5 C5             2.3603     1.4251    -0.0410 C.ar    
   6 C6             1.4597     1.5799     0.9963 C.ar    
   7 C7             3.6643     2.1804    -0.0254 C.3     
   8 Cl8           -1.5335    -0.8323    -0.0867 Cl      
   9 C9             4.5274     1.7434    -1.1809 C.2     
  10 N10            4.9947     0.4803    -1.2331 N.am    
  11 O11            4.8015     2.5284    -2.0639 O.2     
  12 C12            5.6957     0.0443    -2.3515 C.2     
  13 N13            6.1861    -1.1460    -2.5028 N.2     
  14 C14            6.8245    -1.3901    -3.6320 C.2     
  15 C15            6.8758    -0.3569    -4.4748 C.2     
  16 S16            6.0301     0.9977    -3.7307 S.3     
  17 C17            3.3980     3.6936    -0.1091 C.3     
  18 C18            3.9820     4.3155     1.1762 C.3     
  19 C19            5.0575     3.2997     1.6351 C.3     
  20 C20            4.4014     1.9345     1.3073 C.3     
  21 H21           -0.4416     1.0115     1.7910 H       
  22 H22            0.6397    -0.7784    -1.9284 H       
  23 H23            2.7695     0.4566    -1.9024 H       
  24 H24            1.6907     2.2423     1.8175 H       
  25 H25            4.8418    -0.1244    -0.4903 H       
  26 H26            7.2692    -2.3485    -3.8556 H       
  27 H27            7.3501    -0.3527    -5.4451 H       
  28 H28            3.8938     4.1121    -0.9850 H       
  29 H29            2.3256     3.8817    -0.1610 H       
  30 H30            4.4377     5.2817     0.9595 H       
  31 H31            3.2071     4.4199     1.9357 H       
  32 H32            5.9793     3.4306     1.0682 H       
  33 H33            5.2443     3.3917     2.7050 H       
  34 H34            3.6941     1.6540     2.0878 H       
  35 H35            5.1632     1.1643     1.1868 H       
@<TRIPOS>BOND
   1    1    2 ar
   2    1    6 ar
   3    1   21 1
   4    2    3 ar
   5    2    8 1
   6    3    4 ar
   7    3   22 1
   8    4    5 ar
   9    4   23 1
  10    5    6 ar
  11    5    7 1
  12    6   24 1
  13    7    9 1
  14    7   17 1
  15    7   20 1
  16    9   10 am
  17    9   11 2
  18   10   12 1
  19   10   25 1
  20   12   13 2
  21   12   16 1
  22   13   14 1
  23   14   15 2
  24   14   26 1
  25   15   16 1
  26   15   27 1
  27   17   18 1
  28   17   28 1
  29   17   29 1
  30   18   19 1
  31   18   30 1
  32   18   31 1
  33   19   20 1
  34   19   32 1
  35   19   33 1
  36   20   34 1
  37   20   35 1

#	End of record

