#	Name: ASD01911093
#	Creating user name:	WinNT
#	Creation time:	15. 06. 2019 19:57

#	Modifying user name:	WinNT
#	Modification time:	15. 06. 2019 19:57

#	Program:	/corina/corina34_cracker 3.40 0067  02.08.2006

@<TRIPOS>MOLECULE
ASD01911093
  44   47    0    0    0
SMALL
NO_CHARGES


@<TRIPOS>ATOM
   1 O1            -1.2345     1.6753     0.0908 O.3     
   2 C2            -1.0183     0.3376     0.0354 C.2     
   3 N3            -1.9500    -0.6292     0.1657 N.2     
   4 C4            -1.3016    -1.7619     0.0455 C.2     
   5 O5            -0.0152    -1.4576    -0.1512 O.3     
   6 N6             0.1285    -0.2533    -0.1594 N.2     
   7 C7            -1.8944    -3.1456     0.1163 C.3     
   8 C8            -1.6356    -3.8802    -1.2011 C.3     
   9 C9            -2.2657    -5.2736    -1.1425 C.3     
  10 C10           -1.6197    -6.0744    -0.0074 C.3     
  11 N11           -1.7370    -5.3061     1.2395 N.am    
  12 C12           -1.2443    -3.9222     1.2656 C.3     
  13 C13           -2.2861    -5.8604     2.3385 C.2     
  14 O14           -2.7842    -6.9676     2.2766 O.2     
  15 C15           -2.2827    -5.1225     3.6182 C.ar    
  16 C16           -3.3306    -5.2742     4.5266 C.ar    
  17 N17           -3.3291    -4.6166     5.6676 N.ar    
  18 C18           -2.3478    -3.7955     5.9977 C.ar    
  19 C19           -1.2700    -3.5914     5.1481 C.ar    
  20 C20           -1.2238    -4.2631     3.9417 C.ar    
  21 F21           -2.3948    -3.1445     7.1806 F       
  22 C22           -0.1530     2.4979     0.0665 C.ar    
  23 C23            1.1257     1.9660     0.1390 C.ar    
  24 C24            2.2252     2.8060     0.1141 C.ar    
  25 C25            2.0479     4.1760     0.0174 C.ar    
  26 C26            0.7733     4.7065    -0.0550 C.ar    
  27 C27           -0.3265     3.8709    -0.0366 C.ar    
  28 F28            3.4715     2.2895     0.1847 F       
  29 H29           -2.9684    -3.0729     0.2874 H       
  30 H30           -2.0761    -3.3168    -2.0237 H       
  31 H31           -0.5613    -3.9738    -1.3597 H       
  32 H32           -3.3362    -5.1814    -0.9592 H       
  33 H33           -2.1011    -5.7874    -2.0896 H       
  34 H34           -2.1318    -7.0303     0.1028 H       
  35 H35           -0.5673    -6.2452    -0.2338 H       
  36 H36           -0.1612    -3.9176     1.1431 H       
  37 H37           -1.5086    -3.4581     2.2158 H       
  38 H38           -4.1506    -5.9367     4.2918 H       
  39 H39           -0.4739    -2.9176     5.4284 H       
  40 H40           -0.3967    -4.1233     3.2615 H       
  41 H41            1.2633     0.8975     0.2152 H       
  42 H42            2.9065     4.8308    -0.0013 H       
  43 H43            0.6374     5.7753    -0.1300 H       
  44 H44           -1.3217     4.2867    -0.0935 H       
@<TRIPOS>BOND
   1    1    2 1
   2    1   22 1
   3    2    3 1
   4    2    6 2
   5    3    4 2
   6    4    5 1
   7    4    7 1
   8    5    6 1
   9    7    8 1
  10    7   12 1
  11    7   29 1
  12    8    9 1
  13    8   30 1
  14    8   31 1
  15    9   10 1
  16    9   32 1
  17    9   33 1
  18   10   11 1
  19   10   34 1
  20   10   35 1
  21   11   12 1
  22   11   13 am
  23   12   36 1
  24   12   37 1
  25   13   14 2
  26   13   15 1
  27   15   16 ar
  28   15   20 ar
  29   16   17 ar
  30   16   38 1
  31   17   18 ar
  32   18   19 ar
  33   18   21 1
  34   19   20 ar
  35   19   39 1
  36   20   40 1
  37   22   23 ar
  38   22   27 ar
  39   23   24 ar
  40   23   41 1
  41   24   25 ar
  42   24   28 1
  43   25   26 ar
  44   25   42 1
  45   26   27 ar
  46   26   43 1
  47   27   44 1

#	End of record

