#	Name: ASD01202040
#	Creating user name:	WinNT
#	Creation time:	15. 06. 2019 19:09

#	Modifying user name:	WinNT
#	Modification time:	15. 06. 2019 19:09

#	Program:	/corina/corina34_cracker 3.40 0067  02.08.2006

@<TRIPOS>MOLECULE
ASD01202040
  51   54    0    0    0
SMALL
NO_CHARGES


@<TRIPOS>ATOM
   1 C1            -0.4329     1.1867    -0.4499 C.2     
   2 C2            -0.2831    -0.2002    -0.4024 C.2     
   3 C3             0.7321     1.8757    -0.2921 C.2     
   4 C4            -1.7325     1.8461    -0.6581 C.2     
   5 C5             0.9843    -0.5986    -0.2096 C.2     
   6 S6             2.0394     0.8002    -0.0810 S.3     
   7 O7            -1.8002     3.0602    -0.6905 O.2     
   8 N8            -2.8473     1.1047    -0.8127 N.am    
   9 C9             1.4269    -2.0068    -0.1193 C.ar    
  10 C10           -4.0736     1.7269    -1.0092 C.2     
  11 S11           -4.3130     3.4173    -1.0838 S.3     
  12 N12           -5.1993     1.1117    -1.1678 N.2     
  13 C13           -6.0366     3.1728    -1.3352 C.2     
  14 C14           -6.2868     1.8521    -1.3461 C.2     
  15 H15           -2.7933     0.1365    -0.7868 H       
  16 C16            2.3698    -2.5039    -1.0196 C.ar    
  17 C17            2.7790    -3.8186    -0.9297 C.ar    
  18 C18            2.2561    -4.6434     0.0501 C.ar    
  19 C19            1.3204    -4.1566     0.9457 C.ar    
  20 C20            0.9076    -2.8425     0.8705 C.ar    
  21 C21            0.8495     3.3781    -0.3034 C.3     
  22 S22            3.0361    -1.4553    -2.2690 S.o2    
  23 O23            3.5264    -0.3282    -1.5559 O.2     
  24 O24            3.9152    -2.2979    -3.0016 O.2     
  25 C25            1.6047    -0.9935    -3.2832 C.3     
  26 C26            0.6800     3.9136     1.1197 C.3     
  27 C27           -7.6840     1.2824    -1.5414 C.3     
  28 C28           -8.7076     2.3877    -1.2728 C.3     
  29 C29           -8.3441     3.6287    -2.0933 C.3     
  30 C30           -7.0727     4.2569    -1.5148 C.3     
  31 H31           -1.1089    -0.8879    -0.5102 H       
  32 H32            3.5087    -4.2047    -1.6260 H       
  33 H33            2.5794    -5.6717     0.1160 H       
  34 H34            0.9154    -4.8058     1.7080 H       
  35 H35            0.1774    -2.4637     1.5703 H       
  36 H36            1.8302     3.6630    -0.6845 H       
  37 H37            0.0745     3.7983    -0.9445 H       
  38 H38            0.8730    -0.4745    -2.6640 H       
  39 H39            1.9283    -0.3368    -4.0908 H       
  40 H40            1.1527    -1.8916    -3.7041 H       
  41 H41            1.4550     3.4935     1.7608 H       
  42 H42            0.7649     5.0003     1.1115 H       
  43 H43           -0.3007     3.6287     1.5007 H       
  44 H44           -7.7928     0.9242    -2.5651 H       
  45 H45           -7.8437     0.4592    -0.8450 H       
  46 H46           -9.7005     2.0408    -1.5589 H       
  47 H47           -8.7017     2.6386    -0.2122 H       
  48 H48           -8.1669     3.3417    -3.1299 H       
  49 H49           -9.1611     4.3487    -2.0472 H       
  50 H50           -7.2951     4.7087    -0.5481 H       
  51 H51           -6.6963     5.0174    -2.1990 H       
@<TRIPOS>BOND
   1    1    2 1
   2    1    3 2
   3    1    4 1
   4    2    5 2
   5    2   31 1
   6    3   21 1
   7    3    6 1
   8    4    7 2
   9    4    8 am
  10    5    9 1
  11    5    6 1
  12    8   15 1
  13    8   10 1
  14    9   16 ar
  15    9   20 ar
  16   10   12 2
  17   10   11 1
  18   11   13 1
  19   12   14 1
  20   13   14 2
  21   13   30 1
  22   14   27 1
  23   16   17 ar
  24   16   22 1
  25   17   18 ar
  26   17   32 1
  27   18   19 ar
  28   18   33 1
  29   19   20 ar
  30   19   34 1
  31   20   35 1
  32   21   26 1
  33   21   36 1
  34   21   37 1
  35   22   23 2
  36   22   24 2
  37   22   25 1
  38   25   38 1
  39   25   39 1
  40   25   40 1
  41   26   41 1
  42   26   42 1
  43   26   43 1
  44   27   28 1
  45   27   44 1
  46   27   45 1
  47   28   29 1
  48   28   46 1
  49   28   47 1
  50   29   30 1
  51   29   48 1
  52   29   49 1
  53   30   50 1
  54   30   51 1

#	End of record

