#	Name: ASD02120016
#	Creating user name:	WinNT
#	Creation time:	15. 06. 2019 20:18

#	Modifying user name:	WinNT
#	Modification time:	15. 06. 2019 20:18

#	Program:	/corina/corina34_cracker 3.40 0067  02.08.2006

@<TRIPOS>MOLECULE
ASD02120016
 189  194    0    0    0
SMALL
NO_CHARGES


@<TRIPOS>ATOM
   1 C1             1.2549     1.0291    -0.7487 C.3     
   2 C2             0.7819    -0.3155    -1.2380 C.2     
   3 C3             2.6871     0.9064    -0.2248 C.3     
   4 C4             0.3395     1.5128     0.3777 C.3     
   5 C5             2.6911     1.0843     1.2948 C.3     
   6 C6             4.0818     1.5285     1.7527 C.3     
   7 C7             4.5476     0.6378     2.9061 C.3     
   8 C8             5.8700     1.1713     3.4605 C.3     
   9 C9             6.9947     0.1873     3.1319 C.3     
  10 C10            7.8259    -0.0555     4.3653 C.2     
  11 C11            8.8807    -0.8296     4.3024 C.2     
  12 C12            9.2629    -1.4781     2.9968 C.3     
  13 O13            0.9701    -1.3139    -0.5755 O.2     
  14 C14            3.3143    -7.1540    -5.8522 C.3     
  15 C15            4.7531    -7.3321    -6.2626 C.2     
  16 O16            5.1690    -6.8217    -7.2812 O.2     
  17 C17           11.1602    -4.6464     2.1126 C.3     
  18 C18           10.9161    -6.0405     2.6300 C.2     
  19 O19            9.8153    -6.3545     3.0309 O.2     
  20 C20            9.9056    -3.7955     2.3192 C.3     
  21 C21           12.3355    -4.0185     2.8645 C.3     
  22 C22           10.2255    -2.6366     3.2655 C.3     
  23 C23            3.1566    -7.5024    -4.3708 C.3     
  24 C24            4.1212    -6.6798    -3.5559 C.2     
  25 C25            5.4365    -6.9040    -3.4099 C.2     
  26 N26            5.9851    -5.9488    -2.5976 N.pl3   
  27 C27            5.0112    -5.0645    -2.1910 C.ar    
  28 C28            3.8022    -5.4800    -2.7779 C.ar    
  29 C29            5.0222    -3.9349    -1.3791 C.ar    
  30 C30            3.8519    -3.2416    -1.1551 C.ar    
  31 C31            2.6594    -3.6602    -1.7323 C.ar    
  32 C32            2.6285    -4.7623    -2.5389 C.ar    
  33 C33            2.2629     6.1305    -1.4102 C.2     
  34 C34            2.1590     7.5132    -0.8197 C.3     
  35 O35            3.2519     5.4579    -1.2088 O.2     
  36 N36            9.1970    -8.6158    -4.9247 N.am    
  37 C37           10.0240    -8.7038    -3.7046 C.3     
  38 C38           10.5153    -7.3916    -3.1630 C.2     
  39 C39            9.6786    -9.8076    -2.7060 C.3     
  40 C40           10.9368    -9.9224    -3.5696 C.3     
  41 O41           10.4757    -6.3931    -3.8502 O.2     
  42 Cl42           3.8682    -1.8324    -0.1415 Cl      
  43 C43           -1.7769    -1.7023    -3.2494 C.3     
  44 C44           -0.2998    -1.7412    -2.8524 C.3     
  45 C45            0.5294    -2.1785    -4.0325 C.2     
  46 N46            0.1382    -0.3907    -2.4383 N.am    
  47 O47            1.1452    -1.3642    -4.6871 O.2     
  48 C48            2.6268    -2.9540    -5.5922 C.3     
  49 C49            1.4059    -3.8730    -5.5161 C.3     
  50 C50            1.8580    -5.3011    -5.3519 C.2     
  51 N51            0.5775    -3.5000    -4.3527 N.am    
  52 O52            1.2796    -6.0458    -4.5891 O.2     
  53 C53            3.3233    -3.1524    -6.9138 C.ar    
  54 C54            2.7388    -2.6895    -8.0782 C.ar    
  55 C55            3.3752    -2.8701    -9.2910 C.ar    
  56 C56            4.6018    -3.5165    -9.3399 C.ar    
  57 C57            5.1861    -3.9800    -8.1701 C.ar    
  58 C58            4.5483    -3.7919    -6.9592 C.ar    
  59 O59            5.2297    -3.6957   -10.5317 O.3     
  60 N60            2.9269    -5.7440    -6.0739 N.am    
  61 C61            2.5766     4.2270    -3.6583 C.3     
  62 C62            1.3579     4.2974    -2.7359 C.3     
  63 C63            1.5080     3.2877    -1.6273 C.2     
  64 N64            1.2569     5.6415    -2.1619 N.am    
  65 O65            1.8882     3.6423    -0.5315 O.2     
  66 C66            2.3711     5.1478    -4.8334 C.ar    
  67 C67            2.7901     6.4632    -4.7622 C.ar    
  68 C68            2.6016     7.3079    -5.8401 C.ar    
  69 C69            1.9944     6.8372    -6.9892 C.ar    
  70 C70            1.5761     5.5216    -7.0607 C.ar    
  71 C71            1.7686     4.6757    -5.9844 C.ar    
  72 N72            1.2198     1.9907    -1.8534 N.am    
  73 C73           11.0859    -9.1999     2.2349 C.3     
  74 C74           11.7172    -8.2542     3.2586 C.3     
  75 C75           13.0442    -8.8113     3.7057 C.2     
  76 N76           11.9210    -6.9385     2.6474 N.am    
  77 O77           14.0601    -8.1723     3.5309 O.2     
  78 N78           13.1020   -10.0197     4.2997 N.am    
  79 C79            7.3738    -7.0001    -6.7643 C.3     
  80 C80            6.9747    -8.2217    -5.9341 C.3     
  81 C81            7.8762    -8.3307    -4.7313 C.2     
  82 N82            5.5798    -8.0733    -5.4761 N.am    
  83 O83            7.4364    -8.1685    -3.6128 O.2     
  84 C84            7.0710    -5.7254    -5.9741 C.3     
  85 C85            7.5755    -4.5287    -6.7385 C.2     
  86 O86            8.1213    -4.6798    -7.8058 O.2     
  87 O87            7.4186    -3.2949    -6.2337 O.3     
  88 C88           10.7474    -4.9070    -2.1925 C.3     
  89 C89           11.4788    -6.0132    -1.4295 C.3     
  90 C90           11.1926    -5.8837     0.0444 C.2     
  91 N91           11.0053    -7.3311    -1.8954 N.am    
  92 O92           10.7279    -6.8152     0.6667 O.2     
  93 C93            9.3104    -4.7973    -1.6786 C.3     
  94 C94            8.5347    -3.8006    -2.5421 C.3     
  95 C95            8.6363    -6.1688    -1.7525 C.3     
  96 N96           11.4648    -4.7004     0.6664 N.am    
  97 H97            3.0830    -0.0775    -0.4764 H       
  98 H98            3.3087     1.6761    -0.6824 H       
  99 H99            0.3113     0.7644     1.1697 H       
 100 H100           0.7216     2.4517     0.7785 H       
 101 H101          -0.6665     1.6670    -0.0125 H       
 102 H102           1.9578     1.8409     1.5740 H       
 103 H103           2.4365     0.1380     1.7721 H       
 104 H104           4.7823     1.4431     0.9219 H       
 105 H105           4.0402     2.5649     2.0878 H       
 106 H106           3.7951     0.6415     3.6948 H       
 107 H107           4.6897    -0.3805     2.5443 H       
 108 H108           6.0898     2.1384     3.0083 H       
 109 H109           5.7912     1.2852     4.5417 H       
 110 H110           6.5651    -0.7550     2.7919 H       
 111 H111           7.6242     0.6043     2.3458 H       
 112 H112           7.5520     0.4091     5.3010 H       
 113 H113           9.4765    -1.0035     5.1863 H       
 114 H114           8.3677    -1.8565     2.5033 H       
 115 H115           9.7488    -0.7434     2.3547 H       
 116 H116           2.6797    -7.8060    -6.4525 H       
 117 H117           9.5729    -3.3997     1.3596 H       
 118 H118           9.1165    -4.4106     2.7518 H       
 119 H119          13.2385    -4.5997     2.6776 H       
 120 H120          12.4836    -2.9957     2.5182 H       
 121 H121          12.1217    -4.0129     3.9333 H       
 122 H122          11.2500    -2.3038     3.0990 H       
 123 H123          10.1147    -2.9691     4.2976 H       
 124 H124           2.1365    -7.2864    -4.0533 H       
 125 H125           3.3668    -8.5616    -4.2222 H       
 126 H126           5.9811    -7.7177    -3.8657 H       
 127 H127           6.9207    -5.9020    -2.3456 H       
 128 H128           5.9442    -3.6025    -0.9255 H       
 129 H129           1.7510    -3.1064    -1.5468 H       
 130 H130           1.6979    -5.0819    -2.9843 H       
 131 H131           3.0607     7.7328    -0.2479 H       
 132 H132           2.0505     8.2435    -1.6216 H       
 133 H133           1.2908     7.5633    -0.1626 H       
 134 H134           9.5700    -8.7511    -5.8098 H       
 135 H135           9.8134    -9.5884    -1.6468 H       
 136 H136           8.8406   -10.4612    -2.9480 H       
 137 H137          10.9264   -10.6513    -4.3799 H       
 138 H138          11.8993    -9.7785    -3.0787 H       
 139 H139          -2.0941    -2.6956    -3.5668 H       
 140 H140          -2.3746    -1.3858    -2.3946 H       
 141 H141          -1.9142    -0.9976    -4.0696 H       
 142 H142          -0.1615    -2.4394    -2.0269 H       
 143 H143          -0.0221     0.3932    -2.9866 H       
 144 H144           2.3065    -1.9160    -5.5025 H       
 145 H145           3.3132    -3.1939    -4.7802 H       
 146 H146           0.8183    -3.7762    -6.4291 H       
 147 H147           0.0911    -4.1651    -3.8408 H       
 148 H148           1.7838    -2.1867    -8.0397 H       
 149 H149           2.9182    -2.5086   -10.2003 H       
 150 H150           6.1409    -4.4835    -8.2056 H       
 151 H151           5.0048    -4.1486    -6.0478 H       
 152 H152           5.8237    -2.9728   -10.7760 H       
 153 H153           3.4034    -5.1700    -6.6938 H       
 154 H154           3.4666     4.5327    -3.1084 H       
 155 H155           2.7034     3.2050    -4.0154 H       
 156 H156           0.4563     4.0778    -3.3077 H       
 157 H157           0.4660     6.1794    -2.3230 H       
 158 H158           3.2646     6.8310    -3.8644 H       
 159 H159           2.9284     8.3358    -5.7843 H       
 160 H160           1.8464     7.4973    -7.8311 H       
 161 H161           1.1014     5.1538    -7.9584 H       
 162 H162           1.4452     3.6468    -6.0416 H       
 163 H163           0.9891     1.6939    -2.7476 H       
 164 H164          10.9342   -10.1788     2.6897 H       
 165 H165          10.1261    -8.7969     1.9116 H       
 166 H166          11.7474    -9.2977     1.3742 H       
 167 H167          11.0557    -8.1564     4.1194 H       
 168 H168          12.7792    -6.7136     2.2551 H       
 169 H169          12.2895   -10.5308     4.4395 H       
 170 H170          13.9561   -10.3784     4.5875 H       
 171 H171           8.4399    -7.0448    -6.9871 H       
 172 H172           6.8079    -6.9932    -7.6958 H       
 173 H173           7.0656    -9.1226    -6.5409 H       
 174 H174           5.2676    -8.4837    -4.6545 H       
 175 H175           5.9946    -5.6357    -5.8279 H       
 176 H176           7.5667    -5.7726    -5.0045 H       
 177 H177           7.7585    -2.5586    -6.7604 H       
 178 H178          11.2616    -3.9583    -2.0386 H       
 179 H179          10.7357    -5.1457    -3.2559 H       
 180 H180          12.5519    -5.9293    -1.6015 H       
 181 H181          11.0414    -8.1154    -1.3257 H       
 182 H182           9.3196    -4.4522    -0.6447 H       
 183 H183           8.5255    -4.1457    -3.5760 H       
 184 H184           7.5110    -3.7225    -2.1761 H       
 185 H185           9.0149    -2.8235    -2.4895 H       
 186 H186           7.6250    -6.0987    -1.3520 H       
 187 H187           8.5939    -6.4974    -2.7909 H       
 188 H188           9.2098    -6.8876    -1.1671 H       
 189 H189          11.8350    -3.9412     0.1895 H       
@<TRIPOS>BOND
   1    1    2 1
   2    1    3 1
   3    1    4 1
   4    1   72 1
   5    2   13 2
   6    2   46 am
   7    3    5 1
   8    3   97 1
   9    3   98 1
  10    4   99 1
  11    4  100 1
  12    4  101 1
  13    5    6 1
  14    5  102 1
  15    5  103 1
  16    6    7 1
  17    6  104 1
  18    6  105 1
  19    7    8 1
  20    7  106 1
  21    7  107 1
  22    8    9 1
  23    8  108 1
  24    8  109 1
  25    9   10 1
  26    9  110 1
  27    9  111 1
  28   10   11 2
  29   10  112 1
  30   11   12 1
  31   11  113 1
  32   12   22 1
  33   12  114 1
  34   12  115 1
  35   14   15 1
  36   14   23 1
  37   14   60 1
  38   14  116 1
  39   15   16 2
  40   15   82 am
  41   17   18 1
  42   17   20 1
  43   17   21 1
  44   17   96 1
  45   18   19 2
  46   18   76 am
  47   20   22 1
  48   20  117 1
  49   20  118 1
  50   21  119 1
  51   21  120 1
  52   21  121 1
  53   22  122 1
  54   22  123 1
  55   23   24 1
  56   23  124 1
  57   23  125 1
  58   24   25 2
  59   24   28 1
  60   25   26 1
  61   25  126 1
  62   26   27 1
  63   26  127 1
  64   27   28 ar
  65   27   29 ar
  66   28   32 ar
  67   29   30 ar
  68   29  128 1
  69   30   31 ar
  70   30   42 1
  71   31   32 ar
  72   31  129 1
  73   32  130 1
  74   33   35 2
  75   33   64 am
  76   33   34 1
  77   34  131 1
  78   34  132 1
  79   34  133 1
  80   36   37 1
  81   36   81 am
  82   36  134 1
  83   37   38 1
  84   37   39 1
  85   37   40 1
  86   38   41 2
  87   38   91 am
  88   39   40 1
  89   39  135 1
  90   39  136 1
  91   40  137 1
  92   40  138 1
  93   43   44 1
  94   43  139 1
  95   43  140 1
  96   43  141 1
  97   44   45 1
  98   44   46 1
  99   44  142 1
 100   45   47 2
 101   45   51 am
 102   46  143 1
 103   48   53 1
 104   48   49 1
 105   48  144 1
 106   48  145 1
 107   49   50 1
 108   49   51 1
 109   49  146 1
 110   50   52 2
 111   50   60 am
 112   51  147 1
 113   53   54 ar
 114   53   58 ar
 115   54   55 ar
 116   54  148 1
 117   55   56 ar
 118   55  149 1
 119   56   57 ar
 120   56   59 1
 121   57   58 ar
 122   57  150 1
 123   58  151 1
 124   59  152 1
 125   60  153 1
 126   61   66 1
 127   61   62 1
 128   61  154 1
 129   61  155 1
 130   62   63 1
 131   62   64 1
 132   62  156 1
 133   63   65 2
 134   63   72 am
 135   64  157 1
 136   66   67 ar
 137   66   71 ar
 138   67   68 ar
 139   67  158 1
 140   68   69 ar
 141   68  159 1
 142   69   70 ar
 143   69  160 1
 144   70   71 ar
 145   70  161 1
 146   71  162 1
 147   72  163 1
 148   73   74 1
 149   73  164 1
 150   73  165 1
 151   73  166 1
 152   74   75 1
 153   74   76 1
 154   74  167 1
 155   75   77 2
 156   75   78 am
 157   76  168 1
 158   78  169 1
 159   78  170 1
 160   79   84 1
 161   79   80 1
 162   79  171 1
 163   79  172 1
 164   80   82 1
 165   80   81 1
 166   80  173 1
 167   81   83 2
 168   82  174 1
 169   84   85 1
 170   84  175 1
 171   84  176 1
 172   85   86 2
 173   85   87 1
 174   87  177 1
 175   88   93 1
 176   88   89 1
 177   88  178 1
 178   88  179 1
 179   89   91 1
 180   89   90 1
 181   89  180 1
 182   90   92 2
 183   90   96 am
 184   91  181 1
 185   93   94 1
 186   93   95 1
 187   93  182 1
 188   94  183 1
 189   94  184 1
 190   94  185 1
 191   95  186 1
 192   95  187 1
 193   95  188 1
 194   96  189 1

#	End of record

