#	Name: ASD02320072
#	Creating user name:	WinNT
#	Creation time:	15. 06. 2019 20:20

#	Modifying user name:	WinNT
#	Modification time:	15. 06. 2019 20:20

#	Program:	/corina/corina34_cracker 3.40 0067  02.08.2006

@<TRIPOS>MOLECULE
ASD02320072
  93   91    0    0    0
SMALL
NO_CHARGES


@<TRIPOS>ATOM
   1 C1            -0.0164     1.3560     0.0095 C.2     
   2 C2             0.0021    -0.0041     0.0020 C.2     
   3 O3             1.1438    -0.7103    -0.0122 O.3     
   4 C4             2.3572    -0.1189    -0.0208 C.ar    
   5 C5             1.2051     2.0703     0.0017 C.2     
   6 C6            -1.2815    -0.7309     0.0104 C.ar    
   7 C7            -1.2955    -2.1285     0.0030 C.ar    
   8 C8            -2.4962    -2.8031     0.0113 C.ar    
   9 C9            -3.6926    -2.0962     0.0270 C.ar    
  10 C10           -3.6833    -0.7066     0.0344 C.ar    
  11 C11           -2.4871    -0.0240     0.0315 C.ar    
  12 C12            3.5166    -0.8781    -0.0361 C.ar    
  13 C13            4.7548    -0.2541    -0.0452 C.ar    
  14 C14            4.8494     1.1330    -0.0384 C.ar    
  15 C15            3.7038     1.9073    -0.0232 C.ar    
  16 C16            2.4501     1.2838    -0.0145 C.ar    
  17 O17           -4.8740    -2.7652     0.0347 O.3     
  18 S18           -5.3991    -3.0781     1.4285 S.o2    
  19 O19           -6.4411    -4.0806     1.2689 O.co2   
  20 O20           -4.2717    -3.5804     2.1985 O.co2   
  21 O21           -5.9187    -1.8322     1.9705 O.co2   
  22 O22            1.2260     3.2906     0.0081 O.2     
  23 O23            3.7939     3.2614    -0.0161 O.3     
  24 O24            5.8857    -1.0049    -0.0602 O.3     
  25 S25            6.3877    -1.3401    -1.4574 S.o2    
  26 O26            7.3559    -2.4154    -1.3085 O.co2   
  27 O27            5.2277    -1.7533    -2.2319 O.co2   
  28 O28            6.9943    -0.1287    -1.9870 O.co2   
  29 O29            7.0713     9.5514    -0.0214 O.3     
  30 C30            8.1295    10.4011    -0.0317 C.ar    
  31 C31            7.9224    11.7858    -0.0152 C.ar    
  32 C32            9.4205     9.9058    -0.0527 C.ar    
  33 C33           10.5031    10.7781    -0.0622 C.ar    
  34 C34           10.3051    12.1504    -0.0513 C.ar    
  35 C35            9.0188    12.6655    -0.0254 C.ar    
  36 C36            6.4505    13.7660     0.0270 C.2     
  37 C37            6.5646    12.3557     0.0124 C.2     
  38 O38            8.8085    13.9989    -0.0104 O.3     
  39 C39            7.5758    14.5301     0.0142 C.2     
  40 C40            7.4363    15.9985     0.0293 C.ar    
  41 C41            8.5738    16.8107     0.0167 C.ar    
  42 C42            8.4390    18.1813     0.0304 C.ar    
  43 C43            7.1743    18.7569     0.0566 C.ar    
  44 C44            6.0407    17.9531     0.0692 C.ar    
  45 C45            6.1662    16.5817     0.0503 C.ar    
  46 O46            5.5765    11.6395     0.0219 O.2     
  47 O47           11.7664    10.2814    -0.0819 O.3     
  48 O48            7.0460    20.1083     0.0704 O.3     
  49 S49            6.9641    20.7366    -1.3134 S.o2    
  50 S50           12.3238    10.0627    -1.4811 S.o2    
  51 O51            7.1933    22.1627    -1.1409 O.co2   
  52 O52            8.0002    20.1108    -2.1202 O.co2   
  53 O53            5.6310    20.4557    -1.8234 O.co2   
  54 O54           13.4966     9.2141    -1.3375 O.co2   
  55 O55           11.2744     9.4174    -2.2546 O.co2   
  56 O56           12.6614    11.3759    -2.0081 O.co2   
  57 C57            5.1074     3.8243    -0.0252 C.3     
  58 C58            7.3625     8.1525    -0.0332 C.3     
  59 C59            5.0096     5.3281    -0.0155 C.ar    
  60 N60            6.1111     6.0529    -0.0271 N.ar    
  61 C61            3.7664     5.9316    -0.0003 C.ar    
  62 C62            3.6874     7.3158     0.0085 C.ar    
  63 C63            4.8672     8.0441     0.0016 C.ar    
  64 C64            6.0740     7.3710    -0.0193 C.ar    
  65 H65           -0.9568     1.8870     0.0168 H       
  66 H66           -0.3662    -2.6786    -0.0096 H       
  67 H67           -2.5080    -3.8831     0.0053 H       
  68 H68           -4.6153    -0.1611     0.0462 H       
  69 H69           -2.4806     1.0560     0.0418 H       
  70 H70            3.4555    -1.9563    -0.0408 H       
  71 H71            5.8199     1.6068    -0.0448 H       
  72 H72            9.5881     8.8390    -0.0613 H       
  73 H73           11.1539    12.8182    -0.0585 H       
  74 H74            5.4767    14.2326     0.0469 H       
  75 H75            9.5569    16.3642    -0.0033 H       
  76 H76            9.3173    18.8096     0.0210 H       
  77 H77            5.0598    18.4045     0.0899 H       
  78 H78            5.2847    15.9578     0.0556 H       
  79 H79            5.6520     3.4899     0.8577 H       
  80 H80            5.6353     3.5003    -0.9221 H       
  81 H81            7.9270     7.9064    -0.9326 H       
  82 H82            7.9521     7.8966     0.8471 H       
  83 H83            2.8677     5.3326     0.0043 H       
  84 H84            2.7297     7.8149     0.0201 H       
  85 H85            4.8433     9.1239     0.0081 H       
  86 Na86          18.4966    27.1627     7.1985 Du      
  87 Na87          23.4966    32.1627    12.1985 Du      
  88 Na88          28.4966    37.1627    17.1985 Du      
  89 Na89          33.4966    42.1627    22.1985 Du      
  90 Na90          38.4966    47.1627    27.1985 Du      
  91 Na91          43.4966    52.1627    32.1985 Du      
  92 Na92          48.4966    57.1627    37.1985 Du      
  93 Na93          53.4966    62.1627    42.1985 Du      
@<TRIPOS>BOND
   1    1    2 2
   2    1    5 1
   3    1   65 1
   4    2    3 1
   5    2    6 1
   6    3    4 1
   7    4   12 ar
   8    4   16 ar
   9    5   22 2
  10    5   16 1
  11    6    7 ar
  12    6   11 ar
  13    7    8 ar
  14    7   66 1
  15    8    9 ar
  16    8   67 1
  17    9   10 ar
  18    9   17 1
  19   10   11 ar
  20   10   68 1
  21   11   69 1
  22   12   13 ar
  23   12   70 1
  24   13   14 ar
  25   13   24 1
  26   14   15 ar
  27   14   71 1
  28   15   16 ar
  29   15   23 1
  30   17   18 1
  31   18   19 ar
  32   18   20 ar
  33   18   21 ar
  34   23   57 1
  35   24   25 1
  36   25   26 ar
  37   25   27 ar
  38   25   28 ar
  39   29   30 1
  40   29   58 1
  41   30   32 ar
  42   30   31 ar
  43   31   35 ar
  44   31   37 1
  45   32   33 ar
  46   32   72 1
  47   33   34 ar
  48   33   47 1
  49   34   35 ar
  50   34   73 1
  51   35   38 1
  52   36   37 1
  53   36   39 2
  54   36   74 1
  55   37   46 2
  56   38   39 1
  57   39   40 1
  58   40   41 ar
  59   40   45 ar
  60   41   42 ar
  61   41   75 1
  62   42   43 ar
  63   42   76 1
  64   43   44 ar
  65   43   48 1
  66   44   45 ar
  67   44   77 1
  68   45   78 1
  69   47   50 1
  70   48   49 1
  71   49   51 ar
  72   49   52 ar
  73   49   53 ar
  74   50   54 ar
  75   50   55 ar
  76   50   56 ar
  77   57   59 1
  78   57   79 1
  79   57   80 1
  80   58   64 1
  81   58   81 1
  82   58   82 1
  83   59   61 ar
  84   59   60 ar
  85   60   64 ar
  86   61   62 ar
  87   61   83 1
  88   62   63 ar
  89   62   84 1
  90   63   64 ar
  91   63   85 1

#	End of record

