#	Name: ASD00960258
#	Creating user name:	WinNT
#	Creation time:	15. 06. 2019 18:53

#	Modifying user name:	WinNT
#	Modification time:	15. 06. 2019 18:53

#	Program:	/corina/corina34_cracker 3.40 0067  02.08.2006

@<TRIPOS>MOLECULE
ASD00960258
  39   41    0    0    0
SMALL
NO_CHARGES


@<TRIPOS>ATOM
   1 C1            -0.0169     1.3957     0.0097 C.2     
   2 N2             2.0921     0.7035    -0.0209 N.pl3   
   3 C3             1.2893    -0.3960    -0.0097 C.2     
   4 C4             0.0021    -0.0041     0.0020 C.2     
   5 N5             3.4905     0.5962    -0.0584 N.2     
   6 C6             4.0174    -0.5817    -0.2906 C.2     
   7 N7             3.2275    -1.6883    -0.5673 N.pl3   
   8 C8             1.8713    -1.7919     0.0006 C.3     
   9 N9             1.9402    -2.2985     1.3777 N.3     
  10 C10            5.4414    -0.7294    -0.2584 C.1     
  11 C11            6.6088    -0.8505    -0.2321 C.1     
  12 C12            8.0726    -1.0024    -0.1990 C.3     
  13 C13            1.3035     1.8202    -0.0006 C.2     
  14 C14            1.7672     3.2077     0.0081 C.2     
  15 O15            0.9609     4.1183     0.0265 O.2     
  16 O16            3.0890     3.4773    -0.0043 O.3     
  17 C17            3.4704     4.8544     0.0053 C.3     
  18 C18            4.9736     4.9595    -0.0109 C.ar    
  19 C19            5.6494     5.0198    -1.2153 C.ar    
  20 C20            7.0283     5.1161    -1.2301 C.ar    
  21 C21            7.7314     5.1526    -0.0404 C.ar    
  22 C22            7.0556     5.0932     1.1640 C.ar    
  23 C23            5.6764     5.0013     1.1788 C.ar    
  24 H24           -0.8939     2.0260     0.0175 H       
  25 H25           -0.8613    -0.6529     0.0050 H       
  26 H26            3.5689    -2.3959    -1.1362 H       
  27 H27            1.2601    -2.4548    -0.6118 H       
  28 H28            2.3683    -3.2118     1.4060 H       
  29 H29            2.4296    -1.6510     1.9771 H       
  30 H30            8.3353    -2.0385    -0.4123 H       
  31 H31            8.5224    -0.3517    -0.9489 H       
  32 H32            8.4439    -0.7294     0.7888 H       
  33 H33            3.0620     5.3506    -0.8751 H       
  34 H34            3.0824     5.3326     0.9046 H       
  35 H35            5.1001     4.9912    -2.1447 H       
  36 H36            7.5563     5.1625    -2.1710 H       
  37 H37            8.8088     5.2272    -0.0520 H       
  38 H38            7.6049     5.1214     2.0934 H       
  39 H39            5.1481     4.9587     2.1198 H       
@<TRIPOS>BOND
   1    1    4 1
   2    1   13 2
   3    1   24 1
   4    2    3 1
   5    2    5 1
   6    2   13 1
   7    3    4 2
   8    3    8 1
   9    4   25 1
  10    5    6 2
  11    6    7 1
  12    6   10 1
  13    7    8 1
  14    7   26 1
  15    8    9 1
  16    8   27 1
  17    9   28 1
  18    9   29 1
  19   10   11 3
  20   11   12 1
  21   12   30 1
  22   12   31 1
  23   12   32 1
  24   13   14 1
  25   14   15 2
  26   14   16 1
  27   16   17 1
  28   17   18 1
  29   17   33 1
  30   17   34 1
  31   18   19 ar
  32   18   23 ar
  33   19   20 ar
  34   19   35 1
  35   20   21 ar
  36   20   36 1
  37   21   22 ar
  38   21   37 1
  39   22   23 ar
  40   22   38 1
  41   23   39 1

#	End of record

