#	Name: ASD06610070
#	Creating user name:	WinNT
#	Creation time:	15. 06. 2019 21:07

#	Modifying user name:	WinNT
#	Modification time:	15. 06. 2019 21:07

#	Program:	/corina/corina34_cracker 3.40 0067  02.08.2006

@<TRIPOS>MOLECULE
ASD06610070
 237  237    0    0    0
SMALL
NO_CHARGES


@<TRIPOS>ATOM
   1 C1            -1.3646     7.1061    -3.6521 C.2     
   2 O2            -0.4636     6.2942    -3.6488 O.2     
   3 N3             0.2501     8.6945    -4.5232 N.am    
   4 C4            -1.1799     8.4337    -4.3408 C.3     
   5 C5            -1.8705     8.4007    -5.7057 C.3     
   6 C6            -1.7927     9.7861    -6.3503 C.3     
   7 C7            -1.1723     7.3794    -6.6059 C.3     
   8 C8            -4.2329     5.2028    -2.4220 C.2     
   9 O9            -5.0247     6.1188    -2.3516 O.2     
  10 N10           -2.5329     6.8187    -3.0447 N.am    
  11 C11           -2.7540     5.4875    -2.4744 C.3     
  12 C12           -2.1743     5.4362    -1.0594 C.3     
  13 C13           -0.6567     5.6202    -1.1230 C.3     
  14 C14           -0.0770     5.5689     0.2920 C.3     
  15 N15            1.3761     5.7451     0.2311 N.pl3   
  16 C16            2.1188     5.7347     1.3879 C.2     
  17 N17            1.5302     5.5682     2.5389 N.2     
  18 N18            3.4825     5.9001     1.3308 N.pl3   
  19 C19           -6.6219     3.9652    -0.9869 C.2     
  20 O20           -5.9142     4.5869    -0.2230 O.2     
  21 N21           -4.6757     3.9302    -2.4535 N.am    
  22 C22           -6.0768     3.5068    -2.3150 C.3     
  23 C23           -6.0990     1.9654    -2.3876 C.3     
  24 C24           -4.6485     1.5782    -1.9957 C.3     
  25 C25           -3.8361     2.7327    -2.6388 C.3     
  26 C26           -9.5635     3.2323     1.0558 C.2     
  27 O27          -10.1262     2.5469     0.2284 O.2     
  28 N28           -7.8958     3.6844    -0.6482 N.am    
  29 C29           -8.4257     4.1300     0.6429 C.3     
  30 C30           -8.9308     5.5688     0.5177 C.3     
  31 C31           -7.7559     6.4959     0.1997 C.3     
  32 C32           -9.9640     5.6504    -0.6078 C.3     
  33 C33          -11.7207     2.9662     3.9950 C.2     
  34 O34          -11.2108     3.9302     4.5256 O.2     
  35 N35           -9.9559     3.1911     2.3445 N.am    
  36 C36          -11.1302     2.4034     2.7278 C.3     
  37 C37          -10.7151     0.9493     2.9605 C.3     
  38 C38          -12.6056     2.1664     6.9451 C.2     
  39 O39          -11.7511     1.3440     6.6914 O.2     
  40 N40          -12.8153     2.3981     4.5386 N.am    
  41 C41          -13.3251     2.8750     5.8265 C.3     
  42 C42          -14.8245     2.5854     5.9204 C.3     
  43 C43          -15.5549     3.3690     4.8605 C.2     
  44 O44          -14.9317     4.0368     4.0626 O.2     
  45 N45          -16.9006     3.3279     4.7993 N.am    
  46 C46          -13.0821     1.7485    10.5453 C.2     
  47 O47          -14.1785     2.2663    10.5167 O.2     
  48 N48          -12.9117     2.4467     8.2274 N.am    
  49 C49          -12.2122     1.7578     9.3148 C.3     
  50 C50          -10.9027     2.4872     9.6216 C.3     
  51 C51          -12.6210     1.0344    14.1006 C.2     
  52 O52          -11.4157     0.9626    13.9871 O.2     
  53 N53          -12.6418     1.1648    11.6775 N.am    
  54 C54          -13.4876     1.1557    12.8737 C.3     
  55 C55          -14.4495    -0.0324    12.8092 C.3     
  56 C56          -15.4119     0.1538    11.6344 C.3     
  57 C57          -16.3738    -1.0342    11.5699 C.3     
  58 N58          -17.2953    -0.8559    10.4451 N.pl3   
  59 C59          -18.2569    -1.8041    10.1873 C.2     
  60 N60          -18.3487    -2.8617    10.9436 N.2     
  61 N61          -19.1217    -1.6368     9.1317 N.pl3   
  62 C62          -13.1432     0.2772    17.6386 C.2     
  63 O63          -14.3028    -0.0293    17.4593 O.2     
  64 N64          -13.1855     1.0057    15.3242 N.am    
  65 C65          -12.3431     0.8878    16.5169 C.3     
  66 C66          -11.8548     2.2760    16.9357 C.3     
  67 C67          -10.9402     2.8443    15.8488 C.3     
  68 C68          -10.5521     4.2799    16.2081 C.3     
  69 C69           -9.6781     1.9858    15.7441 C.3     
  70 C70          -12.7593    -0.1031    21.2540 C.2     
  71 O71          -11.7861     0.6201    21.2829 O.2     
  72 N72          -12.5700     0.0717    18.8410 N.am    
  73 C73          -13.3477    -0.5219    19.9314 C.3     
  74 C74          -13.3073    -2.0470    19.8152 C.3     
  75 C75          -14.0162    -2.4796    18.5302 C.3     
  76 C76          -13.9757    -4.0046    18.4141 C.3     
  77 N77          -14.6545    -4.4189    17.1837 N.pl3   
  78 C78          -14.7446    -5.7530    16.8641 C.2     
  79 N79          -15.3485    -6.1215    15.7694 N.2     
  80 N80          -14.1976    -6.6983    17.6991 N.pl3   
  81 C81          -11.6151    -1.0557    24.0560 C.2     
  82 O82          -11.3198    -1.9658    23.3182 O.2     
  83 N83          -13.3146    -0.5321    22.4047 N.am    
  84 C84          -12.7425    -0.1249    23.6905 C.3     
  85 C85          -13.8237    -0.1843    24.7714 C.3     
  86 C86          -14.9084     0.8504    24.4651 C.3     
  87 C87          -16.0496     0.7069    25.4741 C.3     
  88 C88          -14.3142     2.2568    24.5639 C.3     
  89 O89          -10.9391    -0.8737    25.2012 O.3     
  90 C90            0.6951     9.9618    -4.6348 C.2     
  91 O91           -0.0883    10.8863    -4.5842 O.2     
  92 C92           14.2644    22.6976    -6.8399 C.3     
  93 C93           12.7710    22.4252    -6.6494 C.3     
  94 C94           12.5361    20.9165    -6.5517 C.3     
  95 C95           11.0426    20.6441    -6.3612 C.3     
  96 C96           10.8078    19.1354    -6.2635 C.3     
  97 C97            9.3143    18.8631    -6.0730 C.3     
  98 C98            9.0794    17.3544    -5.9753 C.3     
  99 C99            7.5860    17.0820    -5.7848 C.3     
 100 C100           7.3511    15.5733    -5.6871 C.3     
 101 C101           5.8576    15.3009    -5.4966 C.3     
 102 C102           5.6228    13.7922    -5.3989 C.3     
 103 C103           4.1293    13.5198    -5.2083 C.3     
 104 C104           3.8944    12.0111    -5.1107 C.3     
 105 C105           2.4010    11.7388    -4.9201 C.3     
 106 C106           2.1661    10.2301    -4.8225 C.3     
 107 H107           0.8766     7.9551    -4.5637 H       
 108 H108          -1.6184     9.2235    -3.7308 H       
 109 H109          -2.9153     8.1177    -5.5775 H       
 110 H110          -0.7569    10.0110    -6.6044 H       
 111 H111          -2.4001     9.8004    -7.2553 H       
 112 H112          -2.1658    10.5339    -5.6505 H       
 113 H113          -1.2277     6.3924    -6.1467 H       
 114 H114          -1.6642     7.3558    -7.5783 H       
 115 H115          -0.1275     7.6624    -6.7341 H       
 116 H116          -3.2273     7.4933    -2.9852 H       
 117 H117          -2.2618     4.7396    -3.0961 H       
 118 H118          -2.6121     6.2331    -0.4583 H       
 119 H119          -2.4047     4.4715    -0.6072 H       
 120 H120          -0.2190     4.8233    -1.7242 H       
 121 H121          -0.4263     6.5848    -1.5753 H       
 122 H122          -0.5148     6.3658     0.8931 H       
 123 H123          -0.3074     4.6042     0.7442 H       
 124 H124           1.8141     5.8690    -0.6255 H       
 125 H125           2.0543     5.5609     3.3551 H       
 126 H126           3.9205     6.0241     0.4743 H       
 127 H127           4.0065     5.8928     2.1470 H       
 128 H128          -6.6728     3.9270    -3.1251 H       
 129 H129          -6.8137     1.5560    -1.6738 H       
 130 H130          -6.3276     1.6303    -3.3993 H       
 131 H131          -4.5265     1.5662    -0.9126 H       
 132 H132          -4.3698     0.6178    -2.4293 H       
 133 H133          -3.6763     2.5419    -3.7000 H       
 134 H134          -2.8817     2.8555    -2.1267 H       
 135 H135          -8.4618     3.1872    -1.2592 H       
 136 H136          -7.6371     4.0859     1.3941 H       
 137 H137          -9.3915     5.8751     1.4568 H       
 138 H138          -7.2952     6.1895    -0.7394 H       
 139 H139          -8.1158     7.5209     0.1105 H       
 140 H140          -7.0199     6.4377     1.0015 H       
 141 H141         -10.7660     4.9374    -0.4172 H       
 142 H142         -10.3765     6.6585    -0.6500 H       
 143 H143          -9.4855     5.4136    -1.5581 H       
 144 H144          -9.4608     3.6829     3.0182 H       
 145 H145         -11.8724     2.4463     1.9308 H       
 146 H146         -11.5888     0.3633     3.2457 H       
 147 H147         -10.2880     0.5423     2.0440 H       
 148 H148          -9.9728     0.9064     3.7576 H       
 149 H149         -13.2656     1.6735     4.0770 H       
 150 H150         -13.1567     3.9488     5.9089 H       
 151 H151         -14.9989     1.5200     5.7695 H       
 152 H152         -15.1900     2.8775     6.9049 H       
 153 H153         -17.3991     2.7938     5.4374 H       
 154 H154         -17.3707     3.8323     4.1170 H       
 155 H155         -13.5951     3.1044     8.4303 H       
 156 H156         -11.9954     0.7324     9.0153 H       
 157 H157         -10.3822     1.9747    10.4306 H       
 158 H158         -10.2734     2.4939     8.7316 H       
 159 H159         -11.1194     3.5126     9.9211 H       
 160 H160         -11.7650     0.7506    11.7003 H       
 161 H161         -14.0583     2.0831    12.9222 H       
 162 H162         -13.8817    -0.9525    12.6714 H       
 163 H163         -15.0170    -0.0912    13.7380 H       
 164 H164         -15.9797     1.0740    11.7723 H       
 165 H165         -14.8444     0.2127    10.7057 H       
 166 H166         -15.8060    -1.9544    11.4321 H       
 167 H167         -16.9413    -1.0931    12.4987 H       
 168 H168         -17.2270    -0.0689     9.8823 H       
 169 H169         -19.0271    -3.5306    10.7617 H       
 170 H170         -19.0534    -0.8497     8.5688 H       
 171 H171         -19.8001    -2.3057     8.9498 H       
 172 H172         -14.1495     1.0631    15.4150 H       
 173 H173         -11.4855     0.2527    16.2947 H       
 174 H174         -12.7111     2.9365    17.0720 H       
 175 H175         -11.3023     2.1996    17.8722 H       
 176 H176         -11.4642     2.8379    14.8930 H       
 177 H177         -10.0281     4.2863    17.1638 H       
 178 H178          -9.9005     4.6848    15.4337 H       
 179 H179         -11.4513     4.8915    16.2826 H       
 180 H180          -9.1540     1.9921    16.6999 H       
 181 H181          -9.9545     0.9630    15.4881 H       
 182 H182          -9.0265     2.3906    14.9698 H       
 183 H183         -11.6425     0.3168    18.9843 H       
 184 H184         -14.3808    -0.1800    19.8687 H       
 185 H185         -12.2704    -2.3819    19.7885 H       
 186 H186         -13.8103    -2.4903    20.6746 H       
 187 H187         -15.0531    -2.1446    18.5569 H       
 188 H188         -13.5132    -2.0363    17.6709 H       
 189 H189         -12.9388    -4.3396    18.3874 H       
 190 H190         -14.4788    -4.4479    19.2735 H       
 191 H191         -15.0404    -3.7519    16.5946 H       
 192 H192         -15.4121    -7.0628    15.5438 H       
 193 H193         -13.7482    -6.4241    18.5137 H       
 194 H194         -14.2612    -7.6396    17.4735 H       
 195 H195         -14.0929    -1.1104    22.3815 H       
 196 H196         -12.3621     0.8936    23.6127 H       
 197 H197         -14.2662    -1.1803    24.7884 H       
 198 H198         -13.3788     0.0324    25.7426 H       
 199 H199         -15.2916     0.6878    23.4577 H       
 200 H200         -15.6664     0.8695    26.4815 H       
 201 H201         -16.8223     1.4440    25.2559 H       
 202 H202         -16.4730    -0.2950    25.4037 H       
 203 H203         -13.9310     2.4194    25.5713 H       
 204 H204         -13.5012     2.3590    23.8450 H       
 205 H205         -15.0869     2.9939    24.3457 H       
 206 H206         -10.2242    -1.4961    25.3927 H       
 207 H207          14.4317    23.7724    -6.9095 H       
 208 H208          14.8179    22.2980    -5.9902 H       
 209 H209          14.6076    22.2164    -7.7558 H       
 210 H210          12.4278    22.9064    -5.7335 H       
 211 H211          12.2175    22.8248    -7.4991 H       
 212 H212          12.8792    20.4353    -7.4676 H       
 213 H213          13.0896    20.5169    -5.7019 H       
 214 H214          10.6995    21.1253    -5.4453 H       
 215 H215          10.4891    21.0437    -7.2109 H       
 216 H216          11.1509    18.6542    -7.1793 H       
 217 H217          11.3613    18.7358    -5.4137 H       
 218 H218           8.9712    19.3442    -5.1571 H       
 219 H219           8.7608    19.2627    -6.9227 H       
 220 H220           9.4226    16.8732    -6.8911 H       
 221 H221           9.6329    16.9547    -5.1255 H       
 222 H222           7.2428    17.5632    -4.8689 H       
 223 H223           7.0325    17.4816    -6.6345 H       
 224 H224           7.6942    15.0921    -6.6029 H       
 225 H225           7.9046    15.1737    -4.8373 H       
 226 H226           5.5145    15.7821    -4.5807 H       
 227 H227           5.3041    15.7005    -6.3463 H       
 228 H228           5.9659    13.3110    -6.3147 H       
 229 H229           6.1763    13.3926    -4.5491 H       
 230 H230           3.7862    14.0010    -4.2925 H       
 231 H231           3.5758    13.9194    -6.0581 H       
 232 H232           4.2376    11.5300    -6.0265 H       
 233 H233           4.4479    11.6115    -4.2609 H       
 234 H234           2.0578    12.2200    -4.0043 H       
 235 H235           1.8475    12.1384    -5.7699 H       
 236 H236           2.7196     9.8305    -3.9727 H       
 237 H237           2.5093     9.7489    -5.7383 H       
@<TRIPOS>BOND
   1    1    2 2
   2    1    4 1
   3    1   10 am
   4    3   90 am
   5    3    4 1
   6    3  107 1
   7    4    5 1
   8    4  108 1
   9    5    6 1
  10    5    7 1
  11    5  109 1
  12    6  110 1
  13    6  111 1
  14    6  112 1
  15    7  113 1
  16    7  114 1
  17    7  115 1
  18    8    9 2
  19    8   11 1
  20    8   21 am
  21   10   11 1
  22   10  116 1
  23   11   12 1
  24   11  117 1
  25   12   13 1
  26   12  118 1
  27   12  119 1
  28   13   14 1
  29   13  120 1
  30   13  121 1
  31   14   15 1
  32   14  122 1
  33   14  123 1
  34   15   16 1
  35   15  124 1
  36   16   17 2
  37   16   18 1
  38   17  125 1
  39   18  126 1
  40   18  127 1
  41   19   20 2
  42   19   28 am
  43   19   22 1
  44   21   22 1
  45   21   25 1
  46   22   23 1
  47   22  128 1
  48   23   24 1
  49   23  129 1
  50   23  130 1
  51   24   25 1
  52   24  131 1
  53   24  132 1
  54   25  133 1
  55   25  134 1
  56   26   27 2
  57   26   29 1
  58   26   35 am
  59   28   29 1
  60   28  135 1
  61   29   30 1
  62   29  136 1
  63   30   31 1
  64   30   32 1
  65   30  137 1
  66   31  138 1
  67   31  139 1
  68   31  140 1
  69   32  141 1
  70   32  142 1
  71   32  143 1
  72   33   34 2
  73   33   36 1
  74   33   40 am
  75   35   36 1
  76   35  144 1
  77   36   37 1
  78   36  145 1
  79   37  146 1
  80   37  147 1
  81   37  148 1
  82   38   39 2
  83   38   41 1
  84   38   48 am
  85   40   41 1
  86   40  149 1
  87   41   42 1
  88   41  150 1
  89   42   43 1
  90   42  151 1
  91   42  152 1
  92   43   44 2
  93   43   45 am
  94   45  153 1
  95   45  154 1
  96   46   47 2
  97   46   49 1
  98   46   53 am
  99   48   49 1
 100   48  155 1
 101   49   50 1
 102   49  156 1
 103   50  157 1
 104   50  158 1
 105   50  159 1
 106   51   52 2
 107   51   54 1
 108   51   64 am
 109   53   54 1
 110   53  160 1
 111   54   55 1
 112   54  161 1
 113   55   56 1
 114   55  162 1
 115   55  163 1
 116   56   57 1
 117   56  164 1
 118   56  165 1
 119   57   58 1
 120   57  166 1
 121   57  167 1
 122   58   59 1
 123   58  168 1
 124   59   60 2
 125   59   61 1
 126   60  169 1
 127   61  170 1
 128   61  171 1
 129   62   63 2
 130   62   65 1
 131   62   72 am
 132   64   65 1
 133   64  172 1
 134   65   66 1
 135   65  173 1
 136   66   67 1
 137   66  174 1
 138   66  175 1
 139   67   68 1
 140   67   69 1
 141   67  176 1
 142   68  177 1
 143   68  178 1
 144   68  179 1
 145   69  180 1
 146   69  181 1
 147   69  182 1
 148   70   71 2
 149   70   73 1
 150   70   83 am
 151   72   73 1
 152   72  183 1
 153   73   74 1
 154   73  184 1
 155   74   75 1
 156   74  185 1
 157   74  186 1
 158   75   76 1
 159   75  187 1
 160   75  188 1
 161   76   77 1
 162   76  189 1
 163   76  190 1
 164   77   78 1
 165   77  191 1
 166   78   79 2
 167   78   80 1
 168   79  192 1
 169   80  193 1
 170   80  194 1
 171   81   82 2
 172   81   84 1
 173   81   89 1
 174   83   84 1
 175   83  195 1
 176   84   85 1
 177   84  196 1
 178   85   86 1
 179   85  197 1
 180   85  198 1
 181   86   87 1
 182   86   88 1
 183   86  199 1
 184   87  200 1
 185   87  201 1
 186   87  202 1
 187   88  203 1
 188   88  204 1
 189   88  205 1
 190   89  206 1
 191   90   91 2
 192   90  106 1
 193   92   93 1
 194   92  207 1
 195   92  208 1
 196   92  209 1
 197   93   94 1
 198   93  210 1
 199   93  211 1
 200   94   95 1
 201   94  212 1
 202   94  213 1
 203   95   96 1
 204   95  214 1
 205   95  215 1
 206   96   97 1
 207   96  216 1
 208   96  217 1
 209   97   98 1
 210   97  218 1
 211   97  219 1
 212   98   99 1
 213   98  220 1
 214   98  221 1
 215   99  100 1
 216   99  222 1
 217   99  223 1
 218  100  101 1
 219  100  224 1
 220  100  225 1
 221  101  102 1
 222  101  226 1
 223  101  227 1
 224  102  103 1
 225  102  228 1
 226  102  229 1
 227  103  104 1
 228  103  230 1
 229  103  231 1
 230  104  105 1
 231  104  232 1
 232  104  233 1
 233  105  106 1
 234  105  234 1
 235  105  235 1
 236  106  236 1
 237  106  237 1

#	End of record

