#	Name: ASD03430590
#	Creating user name:	WinNT
#	Creation time:	15. 06. 2019 20:41

#	Modifying user name:	WinNT
#	Modification time:	15. 06. 2019 20:41

#	Program:	/corina/corina34_cracker 3.40 0067  02.08.2006

@<TRIPOS>MOLECULE
ASD03430590
  58   63    0    0    0
SMALL
NO_CHARGES


@<TRIPOS>ATOM
   1 N1            -0.0157     1.4931     0.4899 N.am    
   2 C2             0.0409     0.2262     0.9343 C.2     
   3 C3             1.4805    -0.0491     1.3134 C.3     
   4 C4             2.1947     1.2482     1.0113 C.ar    
   5 C5             3.5072     1.6450     1.1350 C.ar    
   6 C6             3.8779     2.9281     0.7693 C.ar    
   7 C7             2.9264     3.8061     0.2807 C.ar    
   8 C8             1.6110     3.4103     0.1565 C.ar    
   9 C9             1.2307     2.1204     0.5222 C.ar    
  10 O10           -0.8870    -0.5505     1.0165 O.2     
  11 O11            1.8760    -1.2715     6.8068 O.3     
  12 C12            2.0720    -2.6449     7.1604 C.3     
  13 C13            3.1724    -3.2208     6.2589 C.3     
  14 O14            2.7448    -3.1010     4.8977 O.3     
  15 C15            2.2187    -1.9012     4.5247 C.ar    
  16 C16            1.7830    -0.9887     5.4786 C.ar    
  17 C17            2.1196    -1.5925     3.1768 C.ar    
  18 C18            1.5861    -0.3809     2.7796 C.ar    
  19 C19            1.1485     0.5298     3.7292 C.ar    
  20 C20            1.2471     0.2257     5.0784 C.ar    
  21 O21            0.6231     1.7212     3.3374 O.3     
  22 O22            2.0132    -1.1107     0.5189 O.3     
  23 C23           -1.2434     2.1395     0.0197 C.3     
  24 C24           -0.9992     2.7579    -1.3327 C.ar    
  25 C25           -1.5151     4.0066    -1.6251 C.ar    
  26 C26           -1.2912     4.5738    -2.8656 C.ar    
  27 C27           -0.5509     3.8925    -3.8137 C.ar    
  28 C28           -0.0343     2.6442    -3.5210 C.ar    
  29 C29           -0.2545     2.0789    -2.2789 C.ar    
  30 C30           -2.3418     1.1134    -0.0880 C.ar    
  31 C31           -3.4804     1.2360     0.6862 C.ar    
  32 C32           -4.4880     0.2947     0.5874 C.ar    
  33 C33           -4.3572    -0.7688    -0.2859 C.ar    
  34 C34           -3.2189    -0.8908    -1.0608 C.ar    
  35 C35           -2.2132     0.0528    -0.9652 C.ar    
  36 Br36           5.6790     3.4790     0.9376 Br      
  37 H37            4.2465     0.9567     1.5171 H       
  38 H38            3.2154     4.8069    -0.0046 H       
  39 H39            0.8741     4.1015    -0.2253 H       
  40 H40            2.3774    -2.7158     8.2043 H       
  41 H41            1.1456    -3.1992     7.0094 H       
  42 H42            4.0968    -2.6618     6.4043 H       
  43 H43            3.3350    -4.2708     6.5021 H       
  44 H44            2.4596    -2.3005     2.4354 H       
  45 H45            0.9058     0.9350     5.8179 H       
  46 H46           -0.3341     1.7030     3.2008 H       
  47 H47            1.5522    -1.9536     0.6287 H       
  48 H48           -1.5389     2.9154     0.7260 H       
  49 H49           -2.0934     4.5389    -0.8844 H       
  50 H50           -1.6949     5.5491    -3.0943 H       
  51 H51           -0.3766     4.3354    -4.7832 H       
  52 H52            0.5438     2.1118    -4.2618 H       
  53 H53            0.1523     1.1052    -2.0490 H       
  54 H54           -3.5827     2.0669     1.3685 H       
  55 H55           -5.3773     0.3901     1.1928 H       
  56 H56           -5.1440    -1.5045    -0.3626 H       
  57 H57           -3.1165    -1.7219    -1.7429 H       
  58 H58           -1.3256    -0.0405    -1.5732 H       
@<TRIPOS>BOND
   1    1    2 am
   2    1    9 1
   3    1   23 1
   4    2    3 1
   5    2   10 2
   6    3    4 1
   7    3   18 1
   8    3   22 1
   9    4    5 ar
  10    4    9 ar
  11    5    6 ar
  12    5   37 1
  13    6    7 ar
  14    6   36 1
  15    7    8 ar
  16    7   38 1
  17    8    9 ar
  18    8   39 1
  19   11   12 1
  20   11   16 1
  21   12   13 1
  22   12   40 1
  23   12   41 1
  24   13   14 1
  25   13   42 1
  26   13   43 1
  27   14   15 1
  28   15   16 ar
  29   15   17 ar
  30   16   20 ar
  31   17   18 ar
  32   17   44 1
  33   18   19 ar
  34   19   20 ar
  35   19   21 1
  36   20   45 1
  37   21   46 1
  38   22   47 1
  39   23   24 1
  40   23   30 1
  41   23   48 1
  42   24   25 ar
  43   24   29 ar
  44   25   26 ar
  45   25   49 1
  46   26   27 ar
  47   26   50 1
  48   27   28 ar
  49   27   51 1
  50   28   29 ar
  51   28   52 1
  52   29   53 1
  53   30   31 ar
  54   30   35 ar
  55   31   32 ar
  56   31   54 1
  57   32   33 ar
  58   32   55 1
  59   33   34 ar
  60   33   56 1
  61   34   35 ar
  62   34   57 1
  63   35   58 1

#	End of record

