#	Name: ASD00230014
#	Creating user name:	WinNT
#	Creation time:	15. 06. 2019 18:33

#	Modifying user name:	WinNT
#	Modification time:	15. 06. 2019 18:33

#	Program:	/corina/corina34_cracker 3.40 0067  02.08.2006

@<TRIPOS>MOLECULE
ASD00230014
  29   28    0    0    0
SMALL
NO_CHARGES


@<TRIPOS>ATOM
   1 N1            -0.0348    -0.0123     0.2684 Du      
   2 C2            -0.1494     1.4483    -0.0534 C.3     
   3 C3             1.2359     2.0947     0.0096 C.3     
   4 C4             1.1026     3.6066    -0.1835 C.3     
   5 C5             2.4671     4.2432    -0.1215 C.2     
   6 C6             2.6109     5.7345    -0.2842 C.3     
   7 O7             3.4453     3.5584     0.0587 O.2     
   8 C8            -1.5304    -0.1219     0.3036 C.3     
   9 C9             0.7037    -0.2376    -1.0176 C.3     
  10 C10            0.0798    -1.4729     0.5902 C.3     
  11 H11            0.5204     0.2334     1.1857 H       
  12 H12           -0.5611     1.5684    -1.0555 H       
  13 H13           -0.8079     1.9292     0.6700 H       
  14 H14            1.6881     1.8909     0.9802 H       
  15 H15            1.8657     1.6818    -0.7785 H       
  16 H16            0.6504     3.8104    -1.1542 H       
  17 H17            0.4728     4.0194     0.6046 H       
  18 H18            1.6277     6.1798    -0.4364 H       
  19 H19            3.0657     6.1556     0.6124 H       
  20 H20            3.2432     5.9466    -1.1463 H       
  21 H21           -1.8283    -1.1258     0.0013 H       
  22 H22           -1.8853     0.0732     1.3155 H       
  23 H23           -1.9643     0.6074    -0.3806 H       
  24 H24            1.7759    -0.1530    -0.8406 H       
  25 H25            0.4757    -1.2334    -1.3978 H       
  26 H26            0.3961     0.5097    -1.7490 H       
  27 H27            1.1322    -1.7515     0.6440 H       
  28 H28           -0.3984    -1.6722     1.5492 H       
  29 H29           -0.4111    -2.0561    -0.1889 H       
@<TRIPOS>BOND
   1    1    2 1
   2    1    8 1
   3    1    9 1
   4    1   10 1
   5    1   11 1
   6    2    3 1
   7    2   12 1
   8    2   13 1
   9    3    4 1
  10    3   14 1
  11    3   15 1
  12    4    5 1
  13    4   16 1
  14    4   17 1
  15    5    6 1
  16    5    7 2
  17    6   18 1
  18    6   19 1
  19    6   20 1
  20    8   21 1
  21    8   22 1
  22    8   23 1
  23    9   24 1
  24    9   25 1
  25    9   26 1
  26   10   27 1
  27   10   28 1
  28   10   29 1

#	End of record

