#	Name: ASD03240786
#	Creating user name:	WinNT
#	Creation time:	15. 06. 2019 20:35

#	Modifying user name:	WinNT
#	Modification time:	15. 06. 2019 20:35

#	Program:	/corina/corina34_cracker 3.40 0067  02.08.2006

@<TRIPOS>MOLECULE
ASD03240786
  76   82    0    0    0
SMALL
NO_CHARGES


@<TRIPOS>ATOM
   1 N1            -0.0162     1.3436     0.0094 N.am    
   2 C2            -0.1466     0.0022     0.0233 C.2     
   3 O3             0.8376    -0.7053    -0.0717 O.2     
   4 N4            -1.3680    -0.5549     0.1426 N.am    
   5 N5            -3.0339    -4.3641    -0.5409 N.3     
   6 C6            -2.9699    -3.9143     0.8555 C.3     
   7 C7            -2.7960    -2.3944     0.8958 C.3     
   8 C8            -1.5098    -2.0130     0.1577 C.3     
   9 C9            -1.5818    -2.5350    -1.2800 C.3     
  10 C10           -1.7909    -4.0508    -1.2572 C.3     
  11 C11           -3.3389    -5.7990    -0.6184 C.3     
  12 C12           -3.6383    -6.1725    -2.0474 C.ar    
  13 C13           -2.6131    -6.5804    -2.8820 C.ar    
  14 C14           -2.8809    -6.9241    -4.1912 C.ar    
  15 C15           -4.1885    -6.8596    -4.6726 C.ar    
  16 C16           -5.2178    -6.4476    -3.8261 C.ar    
  17 C17           -4.9380    -6.1115    -2.5175 C.ar    
  18 C18           -3.1397    -7.2903   -10.5731 C.2     
  19 N19           -4.2775    -7.9027   -10.9458 N.2     
  20 C20           -5.2098    -8.2184   -10.0843 C.2     
  21 C21           -5.0104    -7.8973    -8.6727 C.ar    
  22 C22           -3.8144    -7.2541    -8.2880 C.ar    
  23 N23           -2.8873    -6.9596    -9.2693 N.pl3   
  24 C24           -5.9702    -8.2098    -7.7045 C.ar    
  25 C25           -5.6987    -7.8671    -6.3837 C.ar    
  26 C26           -4.4827    -7.2266    -6.0768 C.ar    
  27 N27           -3.5969    -6.9468    -7.0214 N.ar    
  28 N28           -1.6323    -6.3410    -9.2186 N.2     
  29 C29           -1.1356    -6.2927   -10.4314 C.2     
  30 C30           -2.0427    -6.8685   -11.3121 C.2     
  31 C31           -6.6776    -8.1720    -5.3127 C.ar    
  32 C32           -8.0150    -7.8085    -5.4631 C.ar    
  33 C33           -8.9218    -8.0953    -4.4631 C.ar    
  34 C34           -8.5058    -8.7418    -3.3131 C.ar    
  35 C35           -7.1799    -9.1045    -3.1582 C.ar    
  36 C36           -6.2653    -8.8284    -4.1541 C.ar    
  37 C37            0.1991    -5.7036   -10.8089 C.3     
  38 C38            1.2588     1.9231    -0.0005 C.ar    
  39 C39            1.4806     3.1031    -0.6977 C.ar    
  40 C40            2.7386     3.6733    -0.7059 C.ar    
  41 C41            3.7782     3.0689    -0.0193 C.ar    
  42 C42            3.5590     1.8920     0.6766 C.ar    
  43 C43            2.3013     1.3215     0.6916 C.ar    
  44 F44            5.0080     3.6280    -0.0289 F       
  45 H45           -0.8054     1.9075     0.0023 H       
  46 H46           -2.1533     0.0095     0.2184 H       
  47 H47           -3.8921    -4.1881     1.3679 H       
  48 H48           -2.1239    -4.3900     1.3518 H       
  49 H49           -3.6484    -1.9176     0.4119 H       
  50 H50           -2.7328    -2.0627     1.9322 H       
  51 H51           -0.6533    -2.4570     0.6650 H       
  52 H52           -2.4151    -2.0604    -1.7982 H       
  53 H53           -0.6511    -2.3038    -1.7981 H       
  54 H54           -0.9505    -4.5258    -0.7511 H       
  55 H55           -1.8568    -4.4237    -2.2793 H       
  56 H56           -2.4818    -6.3722    -0.2650 H       
  57 H57           -4.2057    -6.0203     0.0042 H       
  58 H58           -1.6011    -6.6296    -2.5082 H       
  59 H59           -2.0797    -7.2420    -4.8419 H       
  60 H60           -6.2321    -6.3953    -4.1933 H       
  61 H61           -5.7347    -5.7963    -1.8599 H       
  62 H62           -6.1141    -8.7098   -10.4116 H       
  63 H63           -6.8934    -8.7012    -7.9738 H       
  64 H64           -1.9163    -6.9713   -12.3798 H       
  65 H65           -8.3407    -7.3031    -6.3602 H       
  66 H66           -9.9581    -7.8142    -4.5785 H       
  67 H67           -9.2189    -8.9639    -2.5330 H       
  68 H68           -6.8607    -9.6087    -2.2580 H       
  69 H69           -5.2313    -9.1160    -4.0341 H       
  70 H70            0.9658    -6.4764   -10.7545 H       
  71 H71            0.1491    -5.3122   -11.8250 H       
  72 H72            0.4476    -4.8961   -10.1203 H       
  73 H73            0.6701     3.5746    -1.2336 H       
  74 H74            2.9116     4.5910    -1.2484 H       
  75 H75            4.3713     1.4220     1.2111 H       
  76 H76            2.1298     0.4057     1.2379 H       
@<TRIPOS>BOND
   1    1    2 am
   2    1   38 1
   3    1   45 1
   4    2    3 2
   5    2    4 am
   6    4    8 1
   7    4   46 1
   8    5    6 1
   9    5   10 1
  10    5   11 1
  11    6    7 1
  12    6   47 1
  13    6   48 1
  14    7    8 1
  15    7   49 1
  16    7   50 1
  17    8    9 1
  18    8   51 1
  19    9   10 1
  20    9   52 1
  21    9   53 1
  22   10   54 1
  23   10   55 1
  24   11   12 1
  25   11   56 1
  26   11   57 1
  27   12   13 ar
  28   12   17 ar
  29   13   14 ar
  30   13   58 1
  31   14   15 ar
  32   14   59 1
  33   15   16 ar
  34   15   26 1
  35   16   17 ar
  36   16   60 1
  37   17   61 1
  38   18   19 1
  39   18   23 1
  40   18   30 2
  41   19   20 2
  42   20   21 1
  43   20   62 1
  44   21   22 ar
  45   21   24 ar
  46   22   23 1
  47   22   27 ar
  48   23   28 1
  49   24   25 ar
  50   24   63 1
  51   25   26 ar
  52   25   31 1
  53   26   27 ar
  54   28   29 2
  55   29   30 1
  56   29   37 1
  57   30   64 1
  58   31   32 ar
  59   31   36 ar
  60   32   33 ar
  61   32   65 1
  62   33   34 ar
  63   33   66 1
  64   34   35 ar
  65   34   67 1
  66   35   36 ar
  67   35   68 1
  68   36   69 1
  69   37   70 1
  70   37   71 1
  71   37   72 1
  72   38   39 ar
  73   38   43 ar
  74   39   40 ar
  75   39   73 1
  76   40   41 ar
  77   40   74 1
  78   41   42 ar
  79   41   44 1
  80   42   43 ar
  81   42   75 1
  82   43   76 1

#	End of record

