#	Name: ASD08150182
#	Creating user name:	WinNT
#	Creation time:	15. 06. 2019 21:15

#	Modifying user name:	WinNT
#	Modification time:	15. 06. 2019 21:15

#	Program:	/corina/corina34_cracker 3.40 0067  02.08.2006

@<TRIPOS>MOLECULE
ASD08150182
  23   24    0    0    0
SMALL
NO_CHARGES


@<TRIPOS>ATOM
   1 C1            -0.0159     1.3201     0.0093 C.ar    
   2 N2             0.0021    -0.0041     0.0020 N.ar    
   3 C3            -1.1271    -0.6969     0.0095 C.ar    
   4 N4            -2.3088    -0.0981     0.0241 N.ar    
   5 C5            -2.3984     1.2232     0.0320 C.ar    
   6 C6            -1.2358     1.9799     0.0303 C.ar    
   7 Cl7            1.4692     2.2191    -0.0001 Cl      
   8 N8            -1.0710    -2.0798     0.0016 N.3     
   9 C9            -2.4209    -2.6620     0.0119 C.3     
  10 C10           -2.3133    -4.1876    -0.0577 C.3     
  11 O11           -1.5141    -4.6543     1.0325 O.3     
  12 C12           -0.1926    -4.1078     1.0529 C.3     
  13 C13           -0.2786    -2.5814     1.1338 C.3     
  14 H14            0.3453    -4.4885     1.9211 H       
  15 H15            0.3341    -4.3950     0.1429 H       
  16 H16           -3.3092    -4.6260     0.0072 H       
  17 H17           -1.8483    -4.4771    -1.0001 H       
  18 H18           -2.9341    -2.3747     0.9296 H       
  19 H19           -2.9812    -2.2969    -0.8489 H       
  20 H20            0.7247    -2.1576     1.0920 H       
  21 H21           -0.7577    -2.2929     2.0694 H       
  22 Cl22          -3.9515     1.9986     0.0505 Cl      
  23 H23           -1.2797     3.0590     0.0366 H       
@<TRIPOS>BOND
   1    1    2 ar
   2    1    7 1
   3    1    6 ar
   4    2    3 ar
   5    3    4 ar
   6    3    8 1
   7    4    5 ar
   8    5    6 ar
   9    5   22 1
  10    6   23 1
  11    8    9 1
  12    8   13 1
  13    9   10 1
  14    9   18 1
  15    9   19 1
  16   10   11 1
  17   10   16 1
  18   10   17 1
  19   11   12 1
  20   12   13 1
  21   12   14 1
  22   12   15 1
  23   13   20 1
  24   13   21 1

#	End of record

