#	Name: ASD00170378
#	Creating user name:	WinNT
#	Creation time:	15. 06. 2019 18:32

#	Modifying user name:	WinNT
#	Modification time:	15. 06. 2019 18:32

#	Program:	/corina/corina34_cracker 3.40 0067  02.08.2006

@<TRIPOS>MOLECULE
ASD00170378
  50   53    0    0    0
SMALL
NO_CHARGES


@<TRIPOS>ATOM
   1 C1            -0.0117     1.3388    -0.1030 C.2     
   2 C2             0.0140     0.0010    -0.1302 C.2     
   3 C3            -1.3047    -0.5833     0.0234 C.2     
   4 C4            -2.2977     0.3543     0.1631 C.2     
   5 S5            -1.6492     1.9282     0.1172 S.3     
   6 C6            -1.5513    -2.0249     0.0288 C.2     
   7 C7            -1.5549    -2.7698     1.3069 C.ar    
   8 O8            -1.7537    -2.6119    -1.0186 O.2     
   9 C9            -1.8838    -4.1261     1.3267 C.ar    
  10 C10           -1.8849    -4.8151     2.5218 C.ar    
  11 C11           -1.5608    -4.1646     3.6992 C.ar    
  12 C12           -1.2338    -2.8202     3.6865 C.ar    
  13 C13           -1.2239    -2.1208     2.4974 C.ar    
  14 N14           -3.6366     0.0614     0.3242 N.pl3   
  15 C15            1.2244     2.2061    -0.2401 C.3     
  16 N16            2.4115     1.3714    -0.0029 N.3     
  17 C17            2.3784     0.1606    -0.8357 C.3     
  18 C18            1.3009    -0.7905    -0.3055 C.3     
  19 C19            3.6458     2.1343    -0.2318 C.3     
  20 C20            3.7634     3.2410     0.8181 C.3     
  21 C21            5.0296     4.0237     0.5832 C.ar    
  22 C22            5.0148     5.1299    -0.2455 C.ar    
  23 C23            6.1763     5.8478    -0.4610 C.ar    
  24 C24            7.3526     5.4597     0.1527 C.ar    
  25 C25            7.3672     4.3540     0.9822 C.ar    
  26 C26            6.2047     3.6387     1.2011 C.ar    
  27 N27            8.5965     6.2278    -0.0787 N.pl3   
  28 O28            8.5837     7.2018    -0.8099 O.2     
  29 O29            9.6329     5.8859     0.4621 O.2     
  30 H30           -2.1373    -4.6350     0.4084 H       
  31 H31           -2.1395    -5.8646     2.5385 H       
  32 H32           -1.5634    -4.7085     4.6323 H       
  33 H33           -0.9822    -2.3181     4.6090 H       
  34 H34           -0.9681    -1.0716     2.4887 H       
  35 H35           -3.9427    -0.8571     0.2650 H       
  36 H36           -4.2717     0.7741     0.4965 H       
  37 H37            1.2672     2.6260    -1.2450 H       
  38 H38            1.1902     3.0107     0.4944 H       
  39 H39            2.1477     0.4336    -1.8655 H       
  40 H40            3.3496    -0.3330    -0.7987 H       
  41 H41            1.6132    -1.2016     0.6545 H       
  42 H42            1.1412    -1.5995    -1.0183 H       
  43 H43            4.5046     1.4675    -0.1546 H       
  44 H44            3.6190     2.5786    -1.2267 H       
  45 H45            2.9045     3.9078     0.7409 H       
  46 H46            3.7901     2.7967     1.8130 H       
  47 H47            4.0958     5.4331    -0.7250 H       
  48 H48            6.1648     6.7117    -1.1090 H       
  49 H49            8.2863     4.0505     1.4614 H       
  50 H50            6.2162     2.7748     1.8492 H       
@<TRIPOS>BOND
   1    1    2 2
   2    1   15 1
   3    1    5 1
   4    2    3 1
   5    2   18 1
   6    3    4 2
   7    3    6 1
   8    4    5 1
   9    4   14 1
  10    6    7 1
  11    6    8 2
  12    7    9 ar
  13    7   13 ar
  14    9   10 ar
  15    9   30 1
  16   10   11 ar
  17   10   31 1
  18   11   12 ar
  19   11   32 1
  20   12   13 ar
  21   12   33 1
  22   13   34 1
  23   14   35 1
  24   14   36 1
  25   15   16 1
  26   15   37 1
  27   15   38 1
  28   16   17 1
  29   16   19 1
  30   17   18 1
  31   17   39 1
  32   17   40 1
  33   18   41 1
  34   18   42 1
  35   19   20 1
  36   19   43 1
  37   19   44 1
  38   20   21 1
  39   20   45 1
  40   20   46 1
  41   21   22 ar
  42   21   26 ar
  43   22   23 ar
  44   22   47 1
  45   23   24 ar
  46   23   48 1
  47   24   25 ar
  48   24   27 1
  49   25   26 ar
  50   25   49 1
  51   26   50 1
  52   27   28 2
  53   27   29 2

#	End of record

