#	Name: ASD01885727
#	Creating user name:	WinNT
#	Creation time:	15. 06. 2019 19:50

#	Modifying user name:	WinNT
#	Modification time:	15. 06. 2019 19:50

#	Program:	/corina/corina34_cracker 3.40 0067  02.08.2006

@<TRIPOS>MOLECULE
ASD01885727
  55   57    0    0    0
SMALL
NO_CHARGES


@<TRIPOS>ATOM
   1 C1            -0.0160     1.3291     0.0093 C.ar    
   2 C2            -1.2522     2.0239     0.0189 C.ar    
   3 C3            -2.4598     1.2808     0.0210 C.ar    
   4 C4            -2.3703    -0.1044     0.0135 C.ar    
   5 C5            -1.1104    -0.7137     0.0043 C.ar    
   6 N6             0.0021    -0.0041     0.0020 N.ar    
   7 C7             1.1365     3.4282     0.0092 C.ar    
   8 C8            -0.0805     4.1063     0.0248 C.ar    
   9 C9            -1.2606     3.4245     0.0266 C.ar    
  10 C10           -3.7750     1.9611     0.0313 C.ar    
  11 C11           -1.0235    -2.1940    -0.0038 C.2     
  12 C12            2.4228     4.2133     0.0076 C.3     
  13 C13            1.1823     2.0683     0.0019 C.ar    
  14 N14            0.1812    -2.7982    -0.0132 N.am    
  15 O15           -2.0383    -2.8621    -0.0018 O.2     
  16 C16           -4.7577     1.5985    -0.8903 C.ar    
  17 C17           -5.9812     2.2347    -0.8763 C.ar    
  18 C18           -6.2354     3.2328     0.0512 C.ar    
  19 C19           -5.2623     3.5968     0.9685 C.ar    
  20 C20           -4.0376     2.9626     0.9663 C.ar    
  21 F21           -7.4355     3.8531     0.0609 F       
  22 N22            2.8509     4.4547     1.3920 N.3     
  23 C23            3.2105     3.1962     2.0588 C.3     
  24 C24            3.7895     3.4814     3.4157 C.2     
  25 C25            3.9824     5.3949     1.4379 C.3     
  26 N26            4.2429     4.6885     3.7696 N.am    
  27 C27            4.1858     5.8485     2.8847 C.3     
  28 O28            3.8478     2.5790     4.2239 O.2     
  29 H29           -3.2662    -0.7075     0.0151 H       
  30 H30           -0.0888     5.1862     0.0355 H       
  31 H31           -2.1976     3.9615     0.0335 H       
  32 H32            3.1928     3.6481    -0.5175 H       
  33 H33            2.2656     5.1673    -0.4957 H       
  34 H34            2.1340     1.5579    -0.0092 H       
  35 H35            0.9913    -2.2648    -0.0147 H       
  36 H36            0.2380    -3.7665    -0.0184 H       
  37 H37           -4.5605     0.8212    -1.6137 H       
  38 H38           -6.7425     1.9551    -1.5896 H       
  39 H39           -5.4648     4.3756     1.6888 H       
  40 H40           -3.2799     3.2470     1.6815 H       
  41 H41            2.3198     2.5774     2.1683 H       
  42 H42            3.9466     2.6646     1.4558 H       
  43 H43            4.8846     4.8987     1.0801 H       
  44 H44            3.7650     6.2595     0.8108 H       
  45 H45            4.6270     4.7984     4.6534 H       
  46 H46            5.1182     6.4079     2.9611 H       
  47 H47            3.3560     6.4897     3.1820 H       
  48 C48           11.1201    13.3968    10.5587 C.3     
  49 C49           11.1408    11.8670    10.5502 C.3     
  50 H50           12.1427    13.7741    10.5509 H       
  51 H51           10.5929    13.7579     9.6756 H       
  52 H52           10.6099    13.7483    11.4554 H       
  53 H53           11.6680    11.5059    11.4333 H       
  54 H54           10.1182    11.4897    10.5580 H       
  55 H55           11.6510    11.5155     9.6534 H       
@<TRIPOS>BOND
   1    1    6 ar
   2    1   13 ar
   3    1    2 ar
   4    2    3 ar
   5    2    9 ar
   6    3   10 1
   7    3    4 ar
   8    4    5 ar
   9    4   29 1
  10    5   11 1
  11    5    6 ar
  12    7   12 1
  13    7    8 ar
  14    7   13 ar
  15    8    9 ar
  16    8   30 1
  17    9   31 1
  18   10   16 ar
  19   10   20 ar
  20   11   14 am
  21   11   15 2
  22   12   22 1
  23   12   32 1
  24   12   33 1
  25   13   34 1
  26   14   35 1
  27   14   36 1
  28   16   17 ar
  29   16   37 1
  30   17   18 ar
  31   17   38 1
  32   18   19 ar
  33   18   21 1
  34   19   20 ar
  35   19   39 1
  36   20   40 1
  37   22   23 1
  38   22   25 1
  39   23   24 1
  40   23   41 1
  41   23   42 1
  42   24   26 am
  43   24   28 2
  44   25   27 1
  45   25   43 1
  46   25   44 1
  47   26   27 1
  48   26   45 1
  49   27   46 1
  50   27   47 1
  51   48   49 1
  52   48   50 1
  53   48   51 1
  54   48   52 1
  55   49   53 1
  56   49   54 1
  57   49   55 1

#	End of record

