#	Name: ASD01815781
#	Creating user name:	WinNT
#	Creation time:	15. 06. 2019 19:34

#	Modifying user name:	WinNT
#	Modification time:	15. 06. 2019 19:34

#	Program:	/corina/corina34_cracker 3.40 0067  02.08.2006

@<TRIPOS>MOLECULE
ASD01815781
  59   64    0    0    0
SMALL
NO_CHARGES


@<TRIPOS>ATOM
   1 C1            -0.0061     1.4175    -0.0274 C.ar    
   2 C2             0.0083     0.0264    -0.0251 C.ar    
   3 C3             1.1841    -0.6630    -0.0335 C.ar    
   4 C4             2.4011     0.0356    -0.0445 C.ar    
   5 C5             2.3825     1.4517    -0.0468 C.ar    
   6 C6             1.1585     2.1282    -0.0380 C.ar    
   7 C7             3.6334    -0.6508    -0.0537 C.ar    
   8 C8             4.8094     0.0211    -0.0649 C.ar    
   9 C9             4.8467     1.4241    -0.0676 C.ar    
  10 C10            3.6537     2.1697    -0.0583 C.ar    
  11 C11            6.1158     2.1630    -0.0807 C.2     
  12 N12            6.0504     3.5147    -0.0833 N.am    
  13 C13            4.8497     4.1459    -0.0737 C.2     
  14 N14            3.7136     3.5119    -0.0625 N.2     
  15 C15            7.2856     4.3023    -0.0962 C.3     
  16 C16            7.3185     5.1834    -1.3488 C.3     
  17 C17            7.3355     5.1975     1.1458 C.3     
  18 C18            8.5899     6.0730     1.0841 C.3     
  19 O19            8.5727     6.8435    -0.1193 O.3     
  20 C20            8.5735     6.0595    -1.3141 C.3     
  21 O21            7.3785     4.3836     2.3196 O.3     
  22 O22            7.1859     1.5817    -0.0884 O.2     
  23 C23            3.6417    -2.1577    -0.0507 C.3     
  24 C24            3.5083    -2.6637    -1.4640 C.ar    
  25 C25            4.6326    -2.8955    -2.2434 C.ar    
  26 C26            4.4774    -3.3603    -3.5364 C.ar    
  27 N27            3.2788    -3.5847    -4.0353 N.ar    
  28 C28            2.1788    -3.3757    -3.3232 C.ar    
  29 C29            2.2617    -2.9130    -2.0116 C.ar    
  30 C30            0.8506    -3.6418    -3.9266 C.ar    
  31 C31            0.7410    -4.0012    -5.2715 C.ar    
  32 N32           -0.4410    -4.2374    -5.8080 N.ar    
  33 C33           -1.5543    -4.1456    -5.1061 C.ar    
  34 C34           -1.5279    -3.7955    -3.7689 C.ar    
  35 C35           -0.3115    -3.5426    -3.1575 C.ar    
  36 F36            1.8543    -4.1076    -6.0296 F       
  37 H37           -0.9506     1.9412    -0.0251 H       
  38 H38           -0.9260    -0.5152    -0.0163 H       
  39 H39            1.1791    -1.7430    -0.0312 H       
  40 H40            1.1353     3.2080    -0.0400 H       
  41 H41            5.7362    -0.5334    -0.0714 H       
  42 H42            4.8362     5.2258    -0.0754 H       
  43 H43            8.1453     3.6322    -0.0991 H       
  44 H44            7.3391     4.5525    -2.2374 H       
  45 H45            6.4322     5.8174    -1.3715 H       
  46 H46            6.4496     5.8318     1.1734 H       
  47 H47            8.6085     6.7425     1.9441 H       
  48 H48            9.4766     5.4392     1.0973 H       
  49 H49            9.4600     5.4255    -1.3322 H       
  50 H50            8.5804     6.7192    -2.1818 H       
  51 H51            7.4114     4.8858     3.1454 H       
  52 H52            4.5787    -2.5151     0.3762 H       
  53 H53            2.8070    -2.5244     0.5468 H       
  54 H54            5.6196    -2.7144    -1.8440 H       
  55 H55            5.3504    -3.5414    -4.1458 H       
  56 H56            1.3656    -2.7436    -1.4330 H       
  57 H57           -2.5017    -4.3470    -5.5839 H       
  58 H58           -2.4466    -3.7239    -3.2056 H       
  59 H59           -0.2630    -3.2673    -2.1143 H       
@<TRIPOS>BOND
   1    1    2 ar
   2    1    6 ar
   3    1   37 1
   4    2    3 ar
   5    2   38 1
   6    3    4 ar
   7    3   39 1
   8    4    5 ar
   9    4    7 ar
  10    5    6 ar
  11    5   10 ar
  12    6   40 1
  13    7    8 ar
  14    7   23 1
  15    8    9 ar
  16    8   41 1
  17    9   10 ar
  18    9   11 1
  19   10   14 1
  20   11   12 am
  21   11   22 2
  22   12   13 1
  23   12   15 1
  24   13   14 2
  25   13   42 1
  26   15   16 1
  27   15   17 1
  28   15   43 1
  29   16   20 1
  30   16   44 1
  31   16   45 1
  32   17   18 1
  33   17   21 1
  34   17   46 1
  35   18   19 1
  36   18   47 1
  37   18   48 1
  38   19   20 1
  39   20   49 1
  40   20   50 1
  41   21   51 1
  42   23   24 1
  43   23   52 1
  44   23   53 1
  45   24   25 ar
  46   24   29 ar
  47   25   26 ar
  48   25   54 1
  49   26   27 ar
  50   26   55 1
  51   27   28 ar
  52   28   29 ar
  53   28   30 1
  54   29   56 1
  55   30   31 ar
  56   30   35 ar
  57   31   32 ar
  58   31   36 1
  59   32   33 ar
  60   33   34 ar
  61   33   57 1
  62   34   35 ar
  63   34   58 1
  64   35   59 1

#	End of record

