#	Name: ASD04882320
#	Creating user name:	WinNT
#	Creation time:	15. 06. 2019 20:54

#	Modifying user name:	WinNT
#	Modification time:	15. 06. 2019 20:54

#	Program:	/corina/corina34_cracker 3.40 0067  02.08.2006

@<TRIPOS>MOLECULE
ASD04882320
  84   89    0    0    0
SMALL
NO_CHARGES


@<TRIPOS>ATOM
   1 N1            -0.0241     1.3952    -0.4420 N.am    
   2 C2            -0.0928     0.0056    -0.6060 C.ar    
   3 C3            -1.3290    -0.6148    -0.8070 C.ar    
   4 C4            -1.3985    -1.9936    -0.9704 C.ar    
   5 C5            -0.2502    -2.7531    -0.9347 C.ar    
   6 C6             0.9893    -2.1391    -0.7340 C.ar    
   7 C7             1.0625    -0.7525    -0.5748 C.ar    
   8 N8            -2.4926     0.1492    -0.8433 N.3     
   9 C9            -3.1785     0.0030    -2.1348 C.3     
  10 C10           -3.3879    -0.2017     0.2679 C.3     
  11 C11           -4.6152     0.7122     0.2388 C.3     
  12 N12           -5.3011     0.5661    -1.0526 N.3     
  13 C13           -4.4058     0.9170    -2.1639 C.3     
  14 C14            2.2192    -2.9530    -0.6953 C.2     
  15 O15            3.2970    -2.4180    -0.5207 O.2     
  16 C16            0.9991     1.9432     0.2428 C.2     
  17 C17            1.1399     3.4063     0.3095 C.2     
  18 O18            1.8064     1.2282     0.8059 O.2     
  19 N19            2.1480    -4.2896    -0.8535 N.am    
  20 C20           -6.4683     1.3324    -1.0890 C.ar    
  21 C21           -6.4017     2.7101    -0.9257 C.ar    
  22 C22           -7.6978     0.7190    -1.2945 C.ar    
  23 C23           -8.8496     1.4796    -1.3304 C.ar    
  24 C24           -7.5579     3.4649    -0.9627 C.ar    
  25 C25            2.2043     4.1153     0.8390 C.2     
  26 C26            1.8727     5.4615     0.6701 C.2     
  27 N27            0.7028     5.5165     0.0862 N.2     
  28 N28            0.2490     4.3372    -0.1441 N.pl3   
  29 C29            2.7126     6.6412     1.0869 C.3     
  30 C30            2.5850     7.1235     2.5333 C.3     
  31 C31            3.8465     6.3849     2.0817 C.3     
  32 C32           -8.7803     2.8507    -1.1626 C.ar    
  33 C33           -1.0334     4.0364    -0.7854 C.3     
  34 C34           -7.7742    -0.7748    -1.4784 C.3     
  35 C35            3.3692    -5.0978    -0.8151 C.3     
  36 C36            3.0121    -6.5715    -1.0191 C.3     
  37 C37            4.2876    -7.4156    -0.9790 C.3     
  38 N38            3.9456    -8.8267    -1.1743 N.am    
  39 C39            3.8794    -9.4894    -2.4821 C.3     
  40 C40            3.0810   -10.7904    -2.2450 C.3     
  41 C41            3.3393   -11.0493    -0.7425 C.3     
  42 C42            3.6579    -9.6823    -0.1783 C.2     
  43 O43            3.6479    -9.3979     1.0007 O.2     
  44 H44           -0.7110     1.9632    -0.8248 H       
  45 H45           -2.3551    -2.4703    -1.1252 H       
  46 H46           -0.3075    -3.8241    -1.0615 H       
  47 H47            2.0189    -0.2752    -0.4199 H       
  48 H48           -2.4992     0.2806    -2.9408 H       
  49 H49           -3.4931    -1.0325    -2.2643 H       
  50 H50           -3.7048    -1.2396     0.1657 H       
  51 H51           -2.8613    -0.0734     1.2136 H       
  52 H52           -5.2945     0.4347     1.0448 H       
  53 H53           -4.3006     1.7478     0.3684 H       
  54 H54           -4.0888     1.9549    -2.0616 H       
  55 H55           -4.9324     0.7887    -3.1095 H       
  56 H56            1.2881    -4.7164    -0.9928 H       
  57 H57           -5.4472     3.1905    -0.7695 H       
  58 H58           -9.8057     1.0033    -1.4900 H       
  59 H59           -7.5069     4.5362    -0.8358 H       
  60 H60            3.1006     3.7130     1.2876 H       
  61 H61            2.8784     7.3955     0.3177 H       
  62 H62            2.6672     8.1950     2.7157 H       
  63 H63            1.8935     6.5875     3.1834 H       
  64 H64            3.9849     5.3630     2.4347 H       
  65 H65            4.7587     6.9705     1.9669 H       
  66 H66           -9.6827     3.4434    -1.1918 H       
  67 H67           -0.8687     3.8109    -1.8390 H       
  68 H68           -1.4909     3.1760    -0.2969 H       
  69 H69           -1.6947     4.8984    -0.6973 H       
  70 H70           -7.9026    -1.2543    -0.5080 H       
  71 H71           -8.6213    -1.0191    -2.1193 H       
  72 H72           -6.8538    -1.1315    -1.9409 H       
  73 H73            4.0440    -4.7744    -1.6076 H       
  74 H74            3.8575    -4.9727     0.1514 H       
  75 H75            2.3373    -6.8949    -0.2265 H       
  76 H76            2.5239    -6.6967    -1.9856 H       
  77 H77            4.9624    -7.0922    -1.7715 H       
  78 H78            4.7758    -7.2905    -0.0125 H       
  79 H79            3.3611    -8.8545    -3.2008 H       
  80 H80            4.8829    -9.7222    -2.8383 H       
  81 H81            2.0192   -10.6372    -2.4375 H       
  82 H82            3.4728   -11.6050    -2.8541 H       
  83 H83            2.4493   -11.4629    -0.2682 H       
  84 H84            4.1889   -11.7194    -0.6114 H       
@<TRIPOS>BOND
   1    1    2 1
   2    1   16 am
   3    1   44 1
   4    2    3 ar
   5    2    7 ar
   6    3    4 ar
   7    3    8 1
   8    4    5 ar
   9    4   45 1
  10    5    6 ar
  11    5   46 1
  12    6    7 ar
  13    6   14 1
  14    7   47 1
  15    8    9 1
  16    8   10 1
  17    9   13 1
  18    9   48 1
  19    9   49 1
  20   10   11 1
  21   10   50 1
  22   10   51 1
  23   11   12 1
  24   11   52 1
  25   11   53 1
  26   12   13 1
  27   12   20 1
  28   13   54 1
  29   13   55 1
  30   14   15 2
  31   14   19 am
  32   16   18 2
  33   16   17 1
  34   17   25 2
  35   17   28 1
  36   19   35 1
  37   19   56 1
  38   20   21 ar
  39   20   22 ar
  40   21   24 ar
  41   21   57 1
  42   22   23 ar
  43   22   34 1
  44   23   32 ar
  45   23   58 1
  46   24   32 ar
  47   24   59 1
  48   25   26 1
  49   25   60 1
  50   26   27 2
  51   26   29 1
  52   27   28 1
  53   28   33 1
  54   29   30 1
  55   29   31 1
  56   29   61 1
  57   30   31 1
  58   30   62 1
  59   30   63 1
  60   31   64 1
  61   31   65 1
  62   32   66 1
  63   33   67 1
  64   33   68 1
  65   33   69 1
  66   34   70 1
  67   34   71 1
  68   34   72 1
  69   35   36 1
  70   35   73 1
  71   35   74 1
  72   36   37 1
  73   36   75 1
  74   36   76 1
  75   37   38 1
  76   37   77 1
  77   37   78 1
  78   38   39 1
  79   38   42 am
  80   39   40 1
  81   39   79 1
  82   39   80 1
  83   40   41 1
  84   40   81 1
  85   40   82 1
  86   41   42 1
  87   41   83 1
  88   41   84 1
  89   42   43 2

#	End of record

