#	Name: ASD01411267
#	Creating user name:	WinNT
#	Creation time:	15. 06. 2019 19:19

#	Modifying user name:	WinNT
#	Modification time:	15. 06. 2019 19:19

#	Program:	/corina/corina34_cracker 3.40 0067  02.08.2006

@<TRIPOS>MOLECULE
ASD01411267
  64   68    0    0    0
SMALL
NO_CHARGES


@<TRIPOS>ATOM
   1 C1            -0.0170     1.4039     0.0098 C.ar    
   2 C2             0.0021    -0.0041     0.0020 C.ar    
   3 C3            -1.2066    -0.7138     0.0124 C.ar    
   4 C4            -2.3891    -0.0458     0.0474 C.ar    
   5 C5            -2.4239     1.3672     0.0698 C.ar    
   6 C6            -1.2297     2.0755     0.0321 C.ar    
   7 N7             1.2976     1.8351    -0.0005 N.pl3   
   8 C8             2.1188     0.7337    -0.0194 C.2     
   9 C9             1.3611    -0.3953    -0.0147 C.2     
  10 C10            1.7300     3.2332     0.0080 C.3     
  11 C11            1.0491     3.9794     1.1270 C.2     
  12 N12            1.0954     5.3372     1.1326 N.am    
  13 O13            0.4745     3.3775     2.0083 O.2     
  14 C14            0.3779     6.0455     2.2055 C.3     
  15 C15           -0.9589     6.5519     1.6564 C.3     
  16 C16           -2.0356     6.3408     2.6872 C.2     
  17 C17           -3.7407     2.0080     0.1338 C.2     
  18 O18           -4.7155     1.2627     0.0534 O.2     
  19 N19           -4.0057     3.3142     0.2906 N.am    
  20 C20           -3.2276     5.9252     2.3428 C.2     
  21 C21           -3.5660     5.6429     0.9034 C.3     
  22 C22           -2.9438     4.3098     0.4791 C.3     
  23 C23            3.5979     0.7492    -0.0434 C.2     
  24 C24            4.4400    -0.0136     0.7055 C.2     
  25 O25            5.7010     0.3055     0.3821 O.3     
  26 C26            5.7240     1.2594    -0.5613 C.2     
  27 C27            4.4623     1.5865    -0.8851 C.2     
  28 C28            1.8831    -1.8085    -0.0243 C.3     
  29 C29            1.3962    -2.5404     1.2280 C.3     
  30 C30            1.9263    -3.9757     1.2183 C.3     
  31 C31            1.4134    -4.7004    -0.0277 C.3     
  32 C32            1.9002    -3.9684    -1.2800 C.3     
  33 C33            1.3702    -2.5332    -1.2703 C.3     
  34 H34           -1.1993    -1.7942    -0.0088 H       
  35 H35           -3.3169    -0.5983     0.0586 H       
  36 H36           -1.2190     3.1533     0.0004 H       
  37 H37            2.8079     3.2964     0.1441 H       
  38 H38            1.4637     3.6968    -0.9443 H       
  39 H39            1.5857     5.8244     0.4510 H       
  40 H40            0.1967     5.3680     3.0386 H       
  41 H41            0.9740     6.8922     2.5463 H       
  42 H42           -0.8761     7.6148     1.4274 H       
  43 H43           -1.2021     6.0048     0.7467 H       
  44 H44           -1.8208     6.5366     3.7304 H       
  45 H45           -4.9410     3.6122     0.2810 H       
  46 H46           -3.9821     5.7833     3.1065 H       
  47 H47           -4.6489     5.5882     0.7889 H       
  48 H48           -3.1772     6.4414     0.2717 H       
  49 H49           -2.2562     3.9752     1.2559 H       
  50 H50           -2.4053     4.4543    -0.4587 H       
  51 H51            4.1428    -0.7510     1.4365 H       
  52 H52            6.6142     1.6914    -0.9941 H       
  53 H53            4.1475     2.3208    -1.6118 H       
  54 H54            2.9729    -1.7933    -0.0356 H       
  55 H55            1.7616    -2.0242     2.1157 H       
  56 H56            0.3064    -2.5557     1.2393 H       
  57 H57            3.0161    -3.9604     1.2070 H       
  58 H58            1.5795    -4.4971     2.1105 H       
  59 H59            1.7910    -5.7228    -0.0346 H       
  60 H60            0.3236    -4.7156    -0.0164 H       
  61 H61            2.9901    -3.9532    -1.2913 H       
  62 H62            1.5348    -4.4847    -2.1677 H       
  63 H63            0.2803    -2.5485    -1.2590 H       
  64 H64            1.7170    -2.0118    -2.1625 H       
@<TRIPOS>BOND
   1    1    2 ar
   2    1    7 1
   3    1    6 ar
   4    2    3 ar
   5    2    9 1
   6    3    4 ar
   7    3   34 1
   8    4    5 ar
   9    4   35 1
  10    5    6 ar
  11    5   17 1
  12    6   36 1
  13    7    8 1
  14    7   10 1
  15    8    9 2
  16    8   23 1
  17    9   28 1
  18   10   11 1
  19   10   37 1
  20   10   38 1
  21   11   12 am
  22   11   13 2
  23   12   14 1
  24   12   39 1
  25   14   15 1
  26   14   40 1
  27   14   41 1
  28   15   16 1
  29   15   42 1
  30   15   43 1
  31   16   20 2
  32   16   44 1
  33   17   18 2
  34   17   19 am
  35   19   22 1
  36   19   45 1
  37   20   21 1
  38   20   46 1
  39   21   22 1
  40   21   47 1
  41   21   48 1
  42   22   49 1
  43   22   50 1
  44   23   24 2
  45   23   27 1
  46   24   25 1
  47   24   51 1
  48   25   26 1
  49   26   27 2
  50   26   52 1
  51   27   53 1
  52   28   29 1
  53   28   33 1
  54   28   54 1
  55   29   30 1
  56   29   55 1
  57   29   56 1
  58   30   31 1
  59   30   57 1
  60   30   58 1
  61   31   32 1
  62   31   59 1
  63   31   60 1
  64   32   33 1
  65   32   61 1
  66   32   62 1
  67   33   63 1
  68   33   64 1

#	End of record

