#	Name: ASD01881527
#	Creating user name:	WinNT
#	Creation time:	15. 06. 2019 19:42

#	Modifying user name:	WinNT
#	Modification time:	15. 06. 2019 19:42

#	Program:	/corina/corina34_cracker 3.40 0067  02.08.2006

@<TRIPOS>MOLECULE
ASD01881527
  45   48    0    0    0
SMALL
NO_CHARGES


@<TRIPOS>ATOM
   1 O1            -0.0164     1.3548     0.0095 O.3     
   2 C2             0.0021    -0.0041     0.0020 C.ar    
   3 C3            -1.1891    -0.7152     0.0096 C.ar    
   4 C4             1.2121    -0.6824    -0.0189 C.ar    
   5 C5             1.2281    -2.0638    -0.0264 C.ar    
   6 C6             0.0396    -2.7702    -0.0131 C.ar    
   7 C7            -1.1677    -2.0964     0.0020 C.ar    
   8 C8             0.0601    -4.2770    -0.0213 C.3     
   9 C9             0.7702    -4.7706    -1.2835 C.3     
  10 C10            0.8060    -4.7837     1.2147 C.3     
  11 C11            1.2479     2.0208     0.0010 C.3     
  12 C12            1.0269     3.5347     0.0112 C.3     
  13 C13            2.3730     4.2865     0.1284 C.3     
  14 N14            2.1512     5.4621    -0.7326 N.pl3   
  15 C15            1.0531     5.2198    -1.5067 C.2     
  16 O16            0.5330     3.9886    -1.2614 O.3     
  17 C17            2.6274     6.7127    -1.0517 C.ar    
  18 C18            1.7645     7.2183    -2.0426 C.ar    
  19 N19            0.8278     6.2658    -2.2745 N.2     
  20 C20            3.6907     7.5012    -0.6289 C.ar    
  21 C21            3.8597     8.7478    -1.1935 C.ar    
  22 N22            3.0324     9.1978    -2.1216 N.ar    
  23 C23            2.0106     8.4909    -2.5577 C.ar    
  24 C24           -1.3752    -4.8067    -0.0036 C.3     
  25 F25           -2.0573    -4.3434    -1.1337 F       
  26 F26           -1.3563    -6.2055    -0.0112 F       
  27 F27           -2.0246    -4.3554     1.1506 F       
  28 H28           -2.1324    -0.1893     0.0217 H       
  29 H29            2.1406    -0.1311    -0.0297 H       
  30 H30            2.1698    -2.5923    -0.0431 H       
  31 H31           -2.0947    -2.6505     0.0127 H       
  32 H32            1.7927    -4.3932    -1.2962 H       
  33 H33            0.7850    -5.8604    -1.2895 H       
  34 H34            0.2387    -4.4096    -2.1641 H       
  35 H35            0.3001    -4.4321     2.1139 H       
  36 H36            0.8208    -5.8736     1.2087 H       
  37 H37            1.8285    -4.4064     1.2020 H       
  38 H38            1.8173     1.7308     0.8840 H       
  39 H39            1.8003     1.7403    -0.8958 H       
  40 H40            0.3514     3.8209     0.8174 H       
  41 H41            2.5595     4.5899     1.1586 H       
  42 H42            3.1924     3.6764    -0.2518 H       
  43 H43            4.3725     7.1440     0.1288 H       
  44 H44            4.6829     9.3683    -0.8714 H       
  45 H45            1.3603     8.8982    -3.3177 H       
@<TRIPOS>BOND
   1    1    2 1
   2    1   11 1
   3    2    3 ar
   4    2    4 ar
   5    3    7 ar
   6    3   28 1
   7    4    5 ar
   8    4   29 1
   9    5    6 ar
  10    5   30 1
  11    6    7 ar
  12    6    8 1
  13    7   31 1
  14    8   24 1
  15    8    9 1
  16    8   10 1
  17    9   32 1
  18    9   33 1
  19    9   34 1
  20   10   35 1
  21   10   36 1
  22   10   37 1
  23   11   12 1
  24   11   38 1
  25   11   39 1
  26   12   13 1
  27   12   16 1
  28   12   40 1
  29   13   14 1
  30   13   41 1
  31   13   42 1
  32   14   15 1
  33   14   17 1
  34   15   16 1
  35   15   19 2
  36   17   18 ar
  37   17   20 ar
  38   18   19 1
  39   18   23 ar
  40   20   21 ar
  41   20   43 1
  42   21   22 ar
  43   21   44 1
  44   22   23 ar
  45   23   45 1
  46   24   25 1
  47   24   26 1
  48   24   27 1

#	End of record

