#	Name: ASD03320063
#	Creating user name:	WinNT
#	Creation time:	15. 06. 2019 20:36

#	Modifying user name:	WinNT
#	Modification time:	15. 06. 2019 20:36

#	Program:	/corina/corina34_cracker 3.40 0067  02.08.2006

@<TRIPOS>MOLECULE
ASD03320063
  41   42    0    0    0
SMALL
NO_CHARGES


@<TRIPOS>ATOM
   1 C1            -0.0077     1.3434    -0.1946 C.ar    
   2 C2             0.0217    -0.0349     0.0276 C.ar    
   3 C3            -1.1538    -0.7589     0.0438 C.ar    
   4 C4            -2.3644    -0.1258    -0.1592 C.ar    
   5 C5            -2.4071     1.2505    -0.3818 C.ar    
   6 C6            -1.2277     1.9877    -0.3944 C.ar    
   7 C7             1.2512     2.1182    -0.2119 C.2     
   8 O8             1.2238     3.3181    -0.4055 O.2     
   9 N9             2.4292     1.4944    -0.0131 N.am    
  10 C10            3.6280     2.2093    -0.1264 C.ar    
  11 C11           -3.7089     1.9278    -0.5995 C.ar    
  12 C12            3.6886     3.5338     0.2864 C.ar    
  13 C13            4.8711     4.2380     0.1748 C.ar    
  14 C14            5.9983     3.6228    -0.3500 C.ar    
  15 C15            5.9384     2.2998    -0.7631 C.ar    
  16 C16            4.7582     1.5925    -0.6464 C.ar    
  17 O17            7.1622     4.3170    -0.4600 O.3     
  18 C18            8.2831     3.6212    -1.0092 C.3     
  19 F19            7.9768     3.1931    -2.3054 F       
  20 F20            9.3890     4.4772    -1.0499 F       
  21 F21            8.5809     2.5123    -0.2099 F       
  22 C22           -4.8991     1.2111    -0.4792 C.ar    
  23 N23           -6.0548     1.8186    -0.6735 N.ar    
  24 C24           -6.0846     3.1038    -0.9815 C.ar    
  25 C25           -4.9053     3.8190    -1.1019 C.ar    
  26 N26           -3.7448     3.2213    -0.9045 N.ar    
  27 H27            0.9654    -0.5354     0.1866 H       
  28 H28           -1.1265    -1.8248     0.2157 H       
  29 H29           -3.2803    -0.6980    -0.1460 H       
  30 H30           -1.2562     3.0536    -0.5660 H       
  31 H31            2.4467     0.5502     0.2085 H       
  32 H32            2.8109     4.0131     0.6944 H       
  33 H33            4.9184     5.2681     0.4959 H       
  34 H34            6.8161     1.8217    -1.1722 H       
  35 H35            4.7117     0.5625    -0.9680 H       
  36 H36           -4.8753     0.1610    -0.2280 H       
  37 H37           -7.0320     3.5974    -1.1402 H       
  38 H38           -4.9349     4.8687    -1.3541 H       
  39 O39           14.3890    11.2350     5.7006 O.3     
  40 H40           14.4021    10.2681     5.6953 H       
  41 H41           15.2669    11.6403     5.6944 H       
@<TRIPOS>BOND
   1    1    2 ar
   2    1    7 1
   3    1    6 ar
   4    2    3 ar
   5    2   27 1
   6    3    4 ar
   7    3   28 1
   8    4    5 ar
   9    4   29 1
  10    5    6 ar
  11    5   11 1
  12    6   30 1
  13    7    8 2
  14    7    9 am
  15    9   10 1
  16    9   31 1
  17   10   12 ar
  18   10   16 ar
  19   11   22 ar
  20   11   26 ar
  21   12   13 ar
  22   12   32 1
  23   13   14 ar
  24   13   33 1
  25   14   15 ar
  26   14   17 1
  27   15   16 ar
  28   15   34 1
  29   16   35 1
  30   17   18 1
  31   18   19 1
  32   18   20 1
  33   18   21 1
  34   22   23 ar
  35   22   36 1
  36   23   24 ar
  37   24   25 ar
  38   24   37 1
  39   25   26 ar
  40   25   38 1
  41   39   40 1
  42   39   41 1

#	End of record

