#	Name: ASD01880310
#	Creating user name:	WinNT
#	Creation time:	15. 06. 2019 19:40

#	Modifying user name:	WinNT
#	Modification time:	15. 06. 2019 19:40

#	Program:	/corina/corina34_cracker 3.40 0067  02.08.2006

@<TRIPOS>MOLECULE
ASD01880310
  49   51    0    0    0
SMALL
NO_CHARGES


@<TRIPOS>ATOM
   1 C1            -0.0412     1.3915     0.1166 C.2     
   2 C2             0.0081     0.0282     0.1566 C.2     
   3 N3            -1.1279    -0.7059     0.0561 N.am    
   4 C4            -2.3259    -0.1088    -0.0848 C.2     
   5 C5            -2.4182     1.2935    -0.1302 C.2     
   6 C6            -1.2858     2.0425    -0.0246 C.2     
   7 O7            -3.3364    -0.7874    -0.1738 O.2     
   8 C8            -1.0499    -2.1681     0.1011 C.3     
   9 C9            -1.1711    -2.6339     1.5292 C.ar    
  10 C10           -2.4158    -2.9147     2.0611 C.ar    
  11 C11           -2.5275    -3.3419     3.3708 C.ar    
  12 C12           -1.3933    -3.4886     4.1495 C.ar    
  13 C13           -0.1479    -3.2075     3.6165 C.ar    
  14 C14           -0.0370    -2.7857     2.3050 C.ar    
  15 Cl15          -1.5329    -4.0247     5.7947 Cl      
  16 C16            1.2073     2.1861     0.2273 C.ar    
  17 C17            1.9252     2.1956     1.4217 C.ar    
  18 C18            3.0853     2.9351     1.5216 C.ar    
  19 C19            3.5375     3.6697     0.4341 C.ar    
  20 C20            2.8245     3.6622    -0.7568 C.ar    
  21 C21            1.6671     2.9197    -0.8647 C.ar    
  22 O22            4.6803     4.3981     0.5358 O.3     
  23 C23            5.0879     5.1305    -0.6215 C.3     
  24 C24           -1.3591     3.5471    -0.0700 C.3     
  25 C25           -1.4172     4.0981     1.3561 C.3     
  26 O26           -1.3702     5.5258     1.3174 O.3     
  27 C27           -1.4188     6.1441     2.6048 C.3     
  28 H28            0.9597    -0.4702     0.2687 H       
  29 H29           -3.3795     1.7727    -0.2436 H       
  30 H30           -1.8610    -2.5936    -0.4899 H       
  31 H31           -0.0932    -2.4937    -0.3073 H       
  32 H32           -3.3011    -2.7998     1.4533 H       
  33 H33           -3.5000    -3.5609     3.7864 H       
  34 H34            0.7378    -3.3218     4.2239 H       
  35 H35            0.9352    -2.5663     1.8888 H       
  36 H36            1.5735     1.6247     2.2684 H       
  37 H37            3.6421     2.9428     2.4470 H       
  38 H38            3.1786     4.2351    -1.6011 H       
  39 H39            1.1128     2.9143    -1.7916 H       
  40 H40            6.0121     5.6665    -0.4054 H       
  41 H41            5.2532     4.4402    -1.4487 H       
  42 H42            4.3095     5.8434    -0.8932 H       
  43 H43           -0.4762     3.9388    -0.5752 H       
  44 H44           -2.2536     3.8510    -0.6137 H       
  45 H45           -2.3441     3.7779     1.8319 H       
  46 H46           -0.5675     3.7220     1.9259 H       
  47 H47           -1.3786     7.2273     2.4894 H       
  48 H48           -2.3458     5.8663     3.1065 H       
  49 H49           -0.5692     5.8104     3.2005 H       
@<TRIPOS>BOND
   1    1    2 2
   2    1   16 1
   3    1    6 1
   4    2    3 1
   5    2   28 1
   6    3    4 am
   7    3    8 1
   8    4    5 1
   9    4    7 2
  10    5    6 2
  11    5   29 1
  12    6   24 1
  13    8    9 1
  14    8   30 1
  15    8   31 1
  16    9   10 ar
  17    9   14 ar
  18   10   11 ar
  19   10   32 1
  20   11   12 ar
  21   11   33 1
  22   12   13 ar
  23   12   15 1
  24   13   14 ar
  25   13   34 1
  26   14   35 1
  27   16   17 ar
  28   16   21 ar
  29   17   18 ar
  30   17   36 1
  31   18   19 ar
  32   18   37 1
  33   19   20 ar
  34   19   22 1
  35   20   21 ar
  36   20   38 1
  37   21   39 1
  38   22   23 1
  39   23   40 1
  40   23   41 1
  41   23   42 1
  42   24   25 1
  43   24   43 1
  44   24   44 1
  45   25   26 1
  46   25   45 1
  47   25   46 1
  48   26   27 1
  49   27   47 1
  50   27   48 1
  51   27   49 1

#	End of record

