#	Name: ASD01180273
#	Creating user name:	WinNT
#	Creation time:	15. 06. 2019 19:07

#	Modifying user name:	WinNT
#	Modification time:	15. 06. 2019 19:07

#	Program:	/corina/corina34_cracker 3.40 0067  02.08.2006

@<TRIPOS>MOLECULE
ASD01180273
  47   47    0    0    0
SMALL
NO_CHARGES


@<TRIPOS>ATOM
   1 C1             0.1589     1.3863    -0.1706 C.3     
   2 C2             0.0864    -0.1414    -0.2112 C.3     
   3 C3             0.8164    -0.7191     1.0030 C.3     
   4 C4             0.0805    -0.3129     2.2813 C.3     
   5 N5             1.5565     1.8143    -0.3175 N.3     
   6 C6             0.8522    -2.2451     0.8981 C.3     
   7 C7            -0.6627     1.9584    -1.2970 C.ar    
   8 C8            -1.9351     2.4389    -1.0479 C.ar    
   9 C9            -2.6905     2.9638    -2.0782 C.ar    
  10 C10           -2.1709     3.0090    -3.3649 C.ar    
  11 C11           -0.8928     2.5261    -3.6118 C.ar    
  12 C12           -0.1404     2.0069    -2.5764 C.ar    
  13 N13           -2.9353     3.5407    -4.4128 N.pl3   
  14 N14           -4.2213     3.1295    -4.7862 N.2     
  15 C15           -4.6049     3.8586    -5.8032 C.2     
  16 C16           -3.5771     4.7569    -6.1105 C.2     
  17 C17           -2.5642     4.5453    -5.2384 C.2     
  18 C18           -3.5970     5.7829    -7.2141 C.3     
  19 F19           -4.8142     5.7069    -7.8996 F       
  20 F20           -3.4501     7.0613    -6.6650 F       
  21 F21           -2.5453     5.5332    -8.1021 F       
  22 C22           -0.3250     2.5734    -5.0069 C.3     
  23 C23           -4.0776     3.4864    -1.8062 C.3     
  24 H24           -0.2322     1.7434     0.7821 H       
  25 H25           -0.9569    -0.4563    -0.1916 H       
  26 H26            0.5581    -0.5034    -1.1248 H       
  27 H27            1.8353    -0.3330     1.0319 H       
  28 H28            0.6006    -0.7245     3.1464 H       
  29 H29            0.0551     0.7742     2.3561 H       
  30 H30           -0.9384    -0.6990     2.2524 H       
  31 H31            2.1154     1.4972     0.4604 H       
  32 H32            1.9422     1.4953    -1.1936 H       
  33 H33            1.3764    -2.5345    -0.0127 H       
  34 H34            1.3722    -2.6567     1.7631 H       
  35 H35           -0.1667    -2.6313     0.8691 H       
  36 H36           -2.3388     2.4035    -0.0468 H       
  37 H37            0.8553     1.6345    -2.7671 H       
  38 H38           -5.5515     3.7799    -6.3171 H       
  39 H39           -1.6269     5.0810    -5.2086 H       
  40 H40            0.1260     3.5500    -5.1828 H       
  41 H41            0.4330     1.7979    -5.1172 H       
  42 H42           -1.1235     2.4064    -5.7299 H       
  43 H43           -4.0192     4.5326    -1.5059 H       
  44 H44           -4.6818     3.4008    -2.7094 H       
  45 H45           -4.5350     2.9038    -1.0065 H       
  46 Cl46           7.1154    12.0613     8.1464 Cl      
  47 H47            7.1154    13.4313     8.1464 H       
@<TRIPOS>BOND
   1    1    2 1
   2    1    5 1
   3    1    7 1
   4    1   24 1
   5    2    3 1
   6    2   25 1
   7    2   26 1
   8    3    4 1
   9    3    6 1
  10    3   27 1
  11    4   28 1
  12    4   29 1
  13    4   30 1
  14    5   31 1
  15    5   32 1
  16    6   33 1
  17    6   34 1
  18    6   35 1
  19    7    8 ar
  20    7   12 ar
  21    8    9 ar
  22    8   36 1
  23    9   10 ar
  24    9   23 1
  25   10   11 ar
  26   10   13 1
  27   11   12 ar
  28   11   22 1
  29   12   37 1
  30   13   14 1
  31   13   17 1
  32   14   15 2
  33   15   16 1
  34   15   38 1
  35   16   17 2
  36   16   18 1
  37   17   39 1
  38   18   19 1
  39   18   20 1
  40   18   21 1
  41   22   40 1
  42   22   41 1
  43   22   42 1
  44   23   43 1
  45   23   44 1
  46   23   45 1
  47   46   47 1

#	End of record

