#	Name: ASD01811310
#	Creating user name:	WinNT
#	Creation time:	15. 06. 2019 19:26

#	Modifying user name:	WinNT
#	Modification time:	15. 06. 2019 19:26

#	Program:	/corina/corina34_cracker 3.40 0067  02.08.2006

@<TRIPOS>MOLECULE
ASD01811310
  61   63    0    0    0
SMALL
NO_CHARGES


@<TRIPOS>ATOM
   1 N1            -0.0183     1.3812    -0.4583 N.am    
   2 C2             0.1668     0.3061    -1.2497 C.2     
   3 O3             1.2581     0.0945    -1.7423 O.2     
   4 N4            -0.8577    -0.5345    -1.4950 N.am    
   5 C5            -0.6565    -1.7032    -2.3553 C.3     
   6 C6            -1.9670    -2.4845    -2.4689 C.3     
   7 C7            -3.0110    -1.6276    -3.1879 C.3     
   8 C8            -1.7272    -3.7698    -3.2636 C.3     
   9 C9             1.0683     2.1957    -0.1187 C.ar    
  10 C10            0.8813     3.5595     0.0730 C.ar    
  11 C11            1.9510     4.3680     0.4081 C.ar    
  12 C12            3.2121     3.8266     0.5545 C.ar    
  13 C13            3.4102     2.4581     0.3646 C.ar    
  14 C14            2.3294     1.6412     0.0320 C.ar    
  15 C15           -0.4923     4.1587    -0.0854 C.3     
  16 C16            4.7602     1.8753     0.5204 C.2     
  17 O17            4.9104     0.8518     1.1587 O.2     
  18 N18            5.8241     2.4790    -0.0453 N.am    
  19 C19            7.1560     1.8618     0.0175 C.3     
  20 C20            7.7170     1.7540    -1.4040 C.3     
  21 C21            7.6947     3.1351    -2.0629 C.3     
  22 C22            6.2517     3.6375    -2.1499 C.3     
  23 C23            5.6731     3.7638    -0.7418 C.3     
  24 F24            8.4539     4.0282    -1.2992 F       
  25 C25            8.2775     3.0394    -3.4494 C.ar    
  26 C26            8.6500     4.1904    -4.1208 C.ar    
  27 C27            9.1841     4.1100    -5.3901 C.ar    
  28 C28            9.3488     2.8634    -5.9971 C.ar    
  29 C29            8.9711     1.7058    -5.3136 C.ar    
  30 C30            8.4428     1.8005    -4.0428 C.ar    
  31 C31            9.9021     2.7724    -7.3147 C.1     
  32 N32           10.3411     2.7002    -8.3600 N.1     
  33 H33           -0.9052     1.5929    -0.1274 H       
  34 H34           -1.7283    -0.3657    -1.1020 H       
  35 H35           -0.3419    -1.3752    -3.3460 H       
  36 H36            0.1123    -2.3440    -1.9236 H       
  37 H37           -2.3278    -2.7359    -1.4715 H       
  38 H38           -2.6502    -1.3762    -4.1852 H       
  39 H39           -3.9446    -2.1843    -3.2688 H       
  40 H40           -3.1818    -0.7120    -2.6217 H       
  41 H41           -0.9835    -4.3802    -2.7514 H       
  42 H42           -2.6609    -4.3264    -3.3445 H       
  43 H43           -1.3665    -3.5183    -4.2609 H       
  44 H44            1.7996     5.4272     0.5554 H       
  45 H45            4.0456     4.4618     0.8157 H       
  46 H46            2.4758     0.5808    -0.1118 H       
  47 H47           -1.0108     4.1374     0.8731 H       
  48 H48           -0.4017     5.1900    -0.4266 H       
  49 H49           -1.0580     3.5822    -0.8174 H       
  50 H50            7.8168     2.4798     0.6253 H       
  51 H51            7.0773     0.8668     0.4556 H       
  52 H52            8.7424     1.3868    -1.3635 H       
  53 H53            7.1055     1.0638    -1.9851 H       
  54 H54            6.2343     4.6108    -2.6404 H       
  55 H55            5.6540     2.9295    -2.7240 H       
  56 H56            4.6163     4.0235    -0.8044 H       
  57 H57            6.2105     4.5401    -0.1972 H       
  58 H58            8.5220     5.1540    -3.6501 H       
  59 H59            9.4738     5.0093    -5.9134 H       
  60 H60            9.0958     0.7384    -5.7772 H       
  61 H61            8.1541     0.9057    -3.5113 H       
@<TRIPOS>BOND
   1    1    2 am
   2    1    9 1
   3    1   33 1
   4    2    3 2
   5    2    4 am
   6    4    5 1
   7    4   34 1
   8    5    6 1
   9    5   35 1
  10    5   36 1
  11    6    7 1
  12    6    8 1
  13    6   37 1
  14    7   38 1
  15    7   39 1
  16    7   40 1
  17    8   41 1
  18    8   42 1
  19    8   43 1
  20    9   10 ar
  21    9   14 ar
  22   10   11 ar
  23   10   15 1
  24   11   12 ar
  25   11   44 1
  26   12   13 ar
  27   12   45 1
  28   13   14 ar
  29   13   16 1
  30   14   46 1
  31   15   47 1
  32   15   48 1
  33   15   49 1
  34   16   17 2
  35   16   18 am
  36   18   19 1
  37   18   23 1
  38   19   20 1
  39   19   50 1
  40   19   51 1
  41   20   21 1
  42   20   52 1
  43   20   53 1
  44   21   22 1
  45   21   24 1
  46   21   25 1
  47   22   23 1
  48   22   54 1
  49   22   55 1
  50   23   56 1
  51   23   57 1
  52   25   26 ar
  53   25   30 ar
  54   26   27 ar
  55   26   58 1
  56   27   28 ar
  57   27   59 1
  58   28   29 ar
  59   28   31 1
  60   29   30 ar
  61   29   60 1
  62   30   61 1
  63   31   32 3

#	End of record

