#	Name: ASD00431070
#	Creating user name:	WinNT
#	Creation time:	15. 06. 2019 18:35

#	Modifying user name:	WinNT
#	Modification time:	15. 06. 2019 18:35

#	Program:	/corina/corina34_cracker 3.40 0067  02.08.2006

@<TRIPOS>MOLECULE
ASD00431070
  83   88    0    0    0
SMALL
NO_CHARGES


@<TRIPOS>ATOM
   1 C1            -0.0977     1.7114    -0.5236 C.2     
   2 C2            -0.2031     0.2051    -0.2522 C.3     
   3 C3            -1.4629     0.1307     0.6486 C.3     
   4 C4            -2.1125     1.4850     0.4889 C.2     
   5 N5            -1.3237     2.2804    -0.2460 N.am    
   6 O6            -3.1856     1.8040     0.9554 O.2     
   7 C7            -2.4032    -0.9748     0.1641 C.3     
   8 C8            -3.5314    -1.1421     1.1491 C.2     
   9 N9            -4.4878    -2.0656     0.9277 N.am    
  10 O10           -3.5788    -0.4457     2.1409 O.2     
  11 C11           -5.5939    -2.2398     1.8796 C.3     
  12 C12           -4.4465    -2.9122    -0.2728 C.3     
  13 C13           -5.7747    -2.7612    -1.0248 C.3     
  14 N14           -6.8778    -2.9393    -0.0702 N.am    
  15 C15           -6.9196    -2.0902     1.1230 C.3     
  16 C16           -7.8346    -3.8621    -0.2920 C.2     
  17 C17           -7.7088    -4.7928    -1.4183 C.2     
  18 C18           -8.6612    -5.6758    -1.8399 C.2     
  19 C19           -8.1194    -6.3592    -2.9396 C.2     
  20 C20           -6.8757    -5.8698    -3.1387 C.2     
  21 O21           -6.6338    -4.9226    -2.2232 O.3     
  22 O22           -8.8031    -3.9231     0.4424 O.2     
  23 C23           -1.7207     3.6136    -0.7058 C.3     
  24 C24           -0.9707     4.2159     1.5876 C.ar    
  25 C25           -0.6956     5.1362     2.5975 C.ar    
  26 C26           -0.8777     6.4701     2.3986 C.ar    
  27 C27           -1.3495     6.9300     1.1572 C.ar    
  28 C28           -1.6287     5.9943     0.1301 C.ar    
  29 C29           -1.4288     4.6246     0.3730 C.ar    
  30 C30           -1.5503     8.2997     0.9146 C.ar    
  31 C31           -2.0088     8.7083    -0.2998 C.ar    
  32 C32           -2.2833     7.7881    -1.3100 C.ar    
  33 C33           -2.1004     6.4542    -1.1113 C.ar    
  34 C34            1.0275     2.2859    -0.8369 C.2     
  35 C35            2.3451     1.5857    -0.8682 C.3     
  36 C36            2.6409     0.8831    -2.1611 C.3     
  37 C37            1.7607    -0.3385    -2.3887 C.3     
  38 C38            0.3342     0.0586    -2.6908 C.3     
  39 C39           -0.6423    -0.4260    -1.6058 C.3     
  40 C40            1.0335    -0.4056     0.3549 C.2     
  41 O41            1.6458     0.1918     1.2082 O.2     
  42 O42            1.4548    -1.6133    -0.0522 O.3     
  43 C43            2.9756    -3.5148    -0.0122 C.3     
  44 C44            2.6532    -2.1398     0.5763 C.3     
  45 H45           -1.1795    -0.0365     1.6878 H       
  46 H46           -2.8090    -0.7051    -0.8109 H       
  47 H47           -1.8511    -1.9110     0.0815 H       
  48 H48           -5.5382    -3.2319     2.3275 H       
  49 H49           -5.5294    -1.4799     2.6584 H       
  50 H50           -3.6245    -2.5963    -0.9152 H       
  51 H51           -4.3073    -3.9533     0.0183 H       
  52 H52           -5.8325    -1.7677    -1.4694 H       
  53 H53           -5.8410    -3.5186    -1.8059 H       
  54 H54           -7.7406    -2.4049     1.7673 H       
  55 H55           -7.0611    -1.0506     0.8275 H       
  56 H56           -9.6413    -5.8206    -1.4100 H       
  57 H57           -8.6052    -7.1312    -3.5180 H       
  58 H58           -6.1909    -6.1874    -3.9111 H       
  59 H59           -1.1603     3.8696    -1.6049 H       
  60 H60           -2.7876     3.6182    -0.9289 H       
  61 H61           -0.8137     3.1631     1.7701 H       
  62 H62           -0.3329     4.7854     3.5524 H       
  63 H63           -0.6610     7.1716     3.1906 H       
  64 H64           -1.3422     9.0242     1.6881 H       
  65 H65           -2.1626     9.7614    -0.4835 H       
  66 H66           -2.6466     8.1387    -2.2646 H       
  67 H67           -2.3174     5.7527    -1.9033 H       
  68 H68            1.0063     3.3355    -1.0904 H       
  69 H69            3.1310     2.3184    -0.6848 H       
  70 H70            2.3663     0.8516    -0.0627 H       
  71 H71            2.4896     1.5826    -2.9832 H       
  72 H72            3.6844     0.5683    -2.1588 H       
  73 H73            2.1564    -0.9120    -3.2269 H       
  74 H74            1.7759    -0.9606    -1.4937 H       
  75 H75            0.2760     1.1449    -2.7601 H       
  76 H76            0.0418    -0.3720    -3.6484 H       
  77 H77           -0.6054    -1.5131    -1.5352 H       
  78 H78           -1.6549    -0.1057    -1.8510 H       
  79 H79            2.1418    -4.1928     0.1704 H       
  80 H80            3.1395    -3.4213    -1.0857 H       
  81 H81            3.8752    -3.9101     0.4596 H       
  82 H82            3.4870    -1.4619     0.3937 H       
  83 H83            2.4893    -2.2334     1.6498 H       
@<TRIPOS>BOND
   1    1    2 1
   2    1   34 2
   3    1    5 1
   4    2    3 1
   5    2   40 1
   6    2   39 1
   7    3    4 1
   8    3    7 1
   9    3   45 1
  10    4    5 am
  11    4    6 2
  12    5   23 1
  13    7    8 1
  14    7   46 1
  15    7   47 1
  16    8    9 am
  17    8   10 2
  18    9   11 1
  19    9   12 1
  20   11   15 1
  21   11   48 1
  22   11   49 1
  23   12   13 1
  24   12   50 1
  25   12   51 1
  26   13   14 1
  27   13   52 1
  28   13   53 1
  29   14   15 1
  30   14   16 am
  31   15   54 1
  32   15   55 1
  33   16   17 1
  34   16   22 2
  35   17   18 2
  36   17   21 1
  37   18   19 1
  38   18   56 1
  39   19   20 2
  40   19   57 1
  41   20   21 1
  42   20   58 1
  43   23   29 1
  44   23   59 1
  45   23   60 1
  46   24   25 ar
  47   24   29 ar
  48   24   61 1
  49   25   26 ar
  50   25   62 1
  51   26   27 ar
  52   26   63 1
  53   27   28 ar
  54   27   30 ar
  55   28   29 ar
  56   28   33 ar
  57   30   31 ar
  58   30   64 1
  59   31   32 ar
  60   31   65 1
  61   32   33 ar
  62   32   66 1
  63   33   67 1
  64   34   35 1
  65   34   68 1
  66   35   36 1
  67   35   69 1
  68   35   70 1
  69   36   37 1
  70   36   71 1
  71   36   72 1
  72   37   38 1
  73   37   73 1
  74   37   74 1
  75   38   39 1
  76   38   75 1
  77   38   76 1
  78   39   77 1
  79   39   78 1
  80   40   41 2
  81   40   42 1
  82   42   44 1
  83   43   44 1
  84   43   79 1
  85   43   80 1
  86   43   81 1
  87   44   82 1
  88   44   83 1

#	End of record

