#	Name: ASD01148016
#	Creating user name:	WinNT
#	Creation time:	15. 06. 2019 19:01

#	Modifying user name:	WinNT
#	Modification time:	15. 06. 2019 19:01

#	Program:	/corina/corina34_cracker 3.40 0067  02.08.2006

@<TRIPOS>MOLECULE
ASD01148016
  36   36    0    0    0
SMALL
NO_CHARGES


@<TRIPOS>ATOM
   1 C1            -0.0184     1.5028     0.0103 C.2     
   2 C2             0.0021    -0.0041     0.0020 C.3     
   3 C3            -0.2550    -0.5098    -1.4189 C.3     
   4 O4             1.0236     2.1234     0.0037 O.2     
   5 N5            -1.1946     2.1607     0.0195 N.am    
   6 O6            -0.3515    -1.9355    -1.4069 O.3     
   7 C7            -0.5922    -2.5126    -2.6919 C.3     
   8 F8            -1.7975    -2.0216    -3.2052 F       
   9 F9             0.4544    -2.1769    -3.5574 F       
  10 C10           -1.2145     3.6256     0.0275 C.3     
  11 C11           -2.6419     4.1085     0.0369 C.ar    
  12 C12           -3.2904     4.3233     1.2389 C.ar    
  13 C13           -4.6010     4.7668     1.2484 C.ar    
  14 C14           -5.2629     4.9953     0.0512 C.ar    
  15 C15           -4.6111     4.7794    -1.1501 C.ar    
  16 C16           -3.2997     4.3417    -1.1561 C.ar    
  17 F17           -6.5428     5.4279     0.0580 F       
  18 F18           -5.2355     4.9765     2.4226 F       
  19 N19            1.3109    -0.4772     0.4594 N.am    
  20 C20            2.4256    -0.1328    -0.2155 C.2     
  21 O21            2.3450     0.5689    -1.2014 O.2     
  22 C22            3.7720    -0.6195     0.2551 C.3     
  23 H23           -0.7738    -0.3816     0.6680 H       
  24 H24           -1.1871    -0.0857    -1.7924 H       
  25 H25            0.5674    -0.2067    -2.0668 H       
  26 H26           -2.0280     1.6644     0.0207 H       
  27 H27           -0.6522    -3.5968    -2.5977 H       
  28 H28           -0.7014     3.9910     0.9171 H       
  29 H29           -0.7098     4.0007    -0.8628 H       
  30 H30           -2.7740     4.1447     2.1705 H       
  31 H31           -5.1256     4.9566    -2.0830 H       
  32 H32           -2.7901     4.1775    -2.0941 H       
  33 H33            1.3754    -1.0384     1.2480 H       
  34 H34            3.7867    -1.7094     0.2491 H       
  35 H35            4.5479    -0.2419    -0.4109 H       
  36 H36            3.9551    -0.2592     1.2674 H       
@<TRIPOS>BOND
   1    1    2 1
   2    1    4 2
   3    1    5 am
   4    2    3 1
   5    2   19 1
   6    2   23 1
   7    3    6 1
   8    3   24 1
   9    3   25 1
  10    5   10 1
  11    5   26 1
  12    6    7 1
  13    7    8 1
  14    7    9 1
  15    7   27 1
  16   10   11 1
  17   10   28 1
  18   10   29 1
  19   11   12 ar
  20   11   16 ar
  21   12   13 ar
  22   12   30 1
  23   13   14 ar
  24   13   18 1
  25   14   15 ar
  26   14   17 1
  27   15   16 ar
  28   15   31 1
  29   16   32 1
  30   19   20 am
  31   19   33 1
  32   20   21 2
  33   20   22 1
  34   22   34 1
  35   22   35 1
  36   22   36 1

#	End of record

