#	Name: ASD09650003
#	Creating user name:	WinNT
#	Creation time:	15. 06. 2019 21:22

#	Modifying user name:	WinNT
#	Modification time:	15. 06. 2019 21:22

#	Program:	/corina/corina34_cracker 3.40 0067  02.08.2006

@<TRIPOS>MOLECULE
ASD09650003
  53   56    0    0    0
SMALL
NO_CHARGES


@<TRIPOS>ATOM
   1 C1            -0.4775     2.2491     1.1345 C.2     
   2 C2            -0.0890     1.1503     0.1791 C.3     
   3 C3            -1.6570     7.8211    -3.7175 C.3     
   4 C4            -1.5590     9.2036    -4.3612 C.3     
   5 C5            -2.6584    10.0603    -3.7643 C.2     
   6 C6            -2.7620    10.0655    -2.3011 C.2     
   7 C7            -2.2404     9.0648    -1.5917 C.2     
   8 C8            -2.3624     9.1325    -0.0804 C.3     
   9 C9            -2.8792     7.7875     0.4346 C.3     
  10 C10           -1.9564     6.6708    -0.0635 C.3     
  11 C11           -2.4143     5.3378     0.4998 C.3     
  12 C12           -2.3082     5.1873     2.0217 C.3     
  13 C13           -2.2554     3.6476     2.2168 C.3     
  14 C14           -1.7253     3.0568     0.8866 C.3     
  15 C15           -1.4085     4.2625     0.0081 C.3     
  16 C16           -1.6310     4.0913    -1.4824 C.3     
  17 C17           -1.2474     5.4201    -2.1524 C.3     
  18 C18           -2.0541     6.5884    -1.5937 C.3     
  19 C19           -1.5346     7.8954    -2.2059 C.3     
  20 C20            0.0234     4.7332     0.2706 C.3     
  21 C21           -0.0489     8.0021    -1.8563 C.3     
  22 O22           -3.4124    10.7079    -4.4602 O.2     
  23 O23            0.2084     2.4790     2.1014 O.2     
  24 H24           -3.0996     6.4653    -1.8765 H       
  25 H25           -3.4271     5.1128     0.1656 H       
  26 H26           -2.4898     2.4378     0.4170 H       
  27 H27           -0.9298     6.8717     0.2427 H       
  28 H28           -0.5449     0.2131     0.4985 H       
  29 H29           -0.4367     1.4005    -0.8232 H       
  30 H30            0.9956     1.0425     0.1710 H       
  31 H31           -2.6183     7.3765    -3.9749 H       
  32 H32           -0.8589     7.1898    -4.1082 H       
  33 H33           -0.5863     9.6451    -4.1445 H       
  34 H34           -1.6976     9.1210    -5.4392 H       
  35 H35           -3.2613    10.8805    -1.7983 H       
  36 H36           -1.3852     9.3396     0.3560 H       
  37 H37           -3.0618     9.9220     0.1945 H       
  38 H38           -2.8882     7.7939     1.5245 H       
  39 H39           -3.8895     7.6186     0.0619 H       
  40 H40           -1.3959     5.6545     2.3927 H       
  41 H41           -3.1855     5.6081     2.5129 H       
  42 H42           -1.5782     3.3970     3.0333 H       
  43 H43           -3.2535     3.2627     2.4263 H       
  44 H44           -0.9999     3.2879    -1.8623 H       
  45 H45           -2.6793     3.8656    -1.6780 H       
  46 H46           -0.1869     5.6088    -1.9860 H       
  47 H47           -1.4293     5.3431    -3.2243 H       
  48 H48            0.1616     4.8976     1.3392 H       
  49 H49            0.7246     3.9731    -0.0738 H       
  50 H50            0.2040     5.6642    -0.2667 H       
  51 H51            0.3411     8.9548    -2.2145 H       
  52 H52            0.0751     7.9422    -0.7750 H       
  53 H53            0.4955     7.1853    -2.3302 H       
@<TRIPOS>BOND
   1    1    2 1
   2    1   23 2
   3    1   14 1
   4    2   28 1
   5    2   29 1
   6    2   30 1
   7    3    4 1
   8    3   19 1
   9    3   31 1
  10    3   32 1
  11    4    5 1
  12    4   33 1
  13    4   34 1
  14    5    6 1
  15    5   22 2
  16    6    7 2
  17    6   35 1
  18    7    8 1
  19    7   19 1
  20    8    9 1
  21    8   36 1
  22    8   37 1
  23    9   10 1
  24    9   38 1
  25    9   39 1
  26   10   11 1
  27   10   27 1
  28   10   18 1
  29   11   12 1
  30   11   15 1
  31   11   25 1
  32   12   13 1
  33   12   40 1
  34   12   41 1
  35   13   14 1
  36   13   42 1
  37   13   43 1
  38   14   15 1
  39   14   26 1
  40   15   16 1
  41   15   20 1
  42   16   17 1
  43   16   44 1
  44   16   45 1
  45   17   18 1
  46   17   46 1
  47   17   47 1
  48   18   24 1
  49   18   19 1
  50   19   21 1
  51   20   48 1
  52   20   49 1
  53   20   50 1
  54   21   51 1
  55   21   52 1
  56   21   53 1

#	End of record

