#	Name: ASD01914659
#	Creating user name:	WinNT
#	Creation time:	15. 06. 2019 20:04

#	Modifying user name:	WinNT
#	Modification time:	15. 06. 2019 20:04

#	Program:	/corina/corina34_cracker 3.40 0067  02.08.2006

@<TRIPOS>MOLECULE
ASD01914659
  42   44    0    0    0
SMALL
NO_CHARGES


@<TRIPOS>ATOM
   1 N1            -0.2249     0.4385    -0.1527 N.ar    
   2 C2             7.1628    -1.5861    -0.1317 C.2     
   3 N3             8.1613    -2.5193    -0.1236 N.pl3   
   4 C4             5.9842    -2.2730    -0.1275 C.2     
   5 N5             6.2798    -3.5971    -0.1171 N.2     
   6 C6             7.5740    -3.7458    -0.1148 C.2     
   7 C7             4.6718    -1.6999    -0.1332 C.1     
   8 C8             3.5960    -1.2301    -0.1377 C.1     
   9 C9             2.2836    -0.6571    -0.1433 C.ar    
  10 C10            1.1416    -1.4705    -0.1382 C.ar    
  11 C11           -0.1018    -0.8756    -0.1434 C.ar    
  12 C12            0.8230     1.2414    -0.1575 C.ar    
  13 C13            2.1041     0.7339    -0.1533 C.ar    
  14 C14            9.5389    -2.2597    -0.1248 C.ar    
  15 C15            8.3030    -5.0647    -0.1048 C.3     
  16 C16            0.6152     2.7340    -0.1681 C.3     
  17 C17           10.1697    -1.8567    -1.2938 C.ar    
  18 C18           11.5274    -1.6016    -1.2918 C.ar    
  19 C19           12.2579    -1.7478    -0.1271 C.ar    
  20 C20           11.6322    -2.1492     1.0391 C.ar    
  21 C21           10.2741    -2.3997     1.0448 C.ar    
  22 S22            9.2397    -1.6713    -2.7788 S.o2    
  23 O23            8.1452    -0.8453    -2.4060 O.2     
  24 O24           10.1936    -1.2349    -3.7375 O.2     
  25 C25            8.6682    -3.3485    -3.1674 C.3     
  26 H26            7.2836    -0.5128    -0.1358 H       
  27 H27            1.2347    -2.5465    -0.1306 H       
  28 H28           -0.9876    -1.4934    -0.1395 H       
  29 H29            2.9566     1.3969    -0.1572 H       
  30 H30            8.4007    -5.4336    -1.1258 H       
  31 H31            9.2938    -4.9290     0.3288 H       
  32 H32            7.7419    -5.7856     0.4898 H       
  33 H33            0.5656     3.0866    -1.1983 H       
  34 H34           -0.3166     2.9748     0.3436 H       
  35 H35            1.4463     3.2202     0.3427 H       
  36 H36           12.0187    -1.2881    -2.2010 H       
  37 H37           13.3193    -1.5485    -0.1281 H       
  38 H38           12.2055    -2.2628     1.9473 H       
  39 H39            9.7860    -2.7127     1.9559 H       
  40 H40            7.9766    -3.6848    -2.3948 H       
  41 H41            8.1612    -3.3451    -4.1323 H       
  42 H42            9.5232    -4.0233    -3.2084 H       
@<TRIPOS>BOND
   1    1   11 ar
   2    1   12 ar
   3    2    3 1
   4    2    4 2
   5    2   26 1
   6    3   14 1
   7    3    6 1
   8    4    5 1
   9    4    7 1
  10    5    6 2
  11    6   15 1
  12    7    8 3
  13    8    9 1
  14    9   10 ar
  15    9   13 ar
  16   10   11 ar
  17   10   27 1
  18   11   28 1
  19   12   13 ar
  20   12   16 1
  21   13   29 1
  22   14   17 ar
  23   14   21 ar
  24   15   30 1
  25   15   31 1
  26   15   32 1
  27   16   33 1
  28   16   34 1
  29   16   35 1
  30   17   18 ar
  31   17   22 1
  32   18   19 ar
  33   18   36 1
  34   19   20 ar
  35   19   37 1
  36   20   21 ar
  37   20   38 1
  38   21   39 1
  39   22   23 2
  40   22   24 2
  41   22   25 1
  42   25   40 1
  43   25   41 1
  44   25   42 1

#	End of record

