#	Name: ASD03331369
#	Creating user name:	WinNT
#	Creation time:	15. 06. 2019 20:39

#	Modifying user name:	WinNT
#	Modification time:	15. 06. 2019 20:39

#	Program:	/corina/corina34_cracker 3.40 0067  02.08.2006

@<TRIPOS>MOLECULE
ASD03331369
  61   63    0    0    0
SMALL
NO_CHARGES


@<TRIPOS>ATOM
   1 C1             0.0952     1.1573    -0.0730 C.3     
   2 C2             0.0817    -0.3224     0.2173 C.2     
   3 C3             1.1545    -1.1291     0.0334 C.2     
   4 C4             2.4813    -0.6348    -0.4877 C.3     
   5 C5             2.2548     0.7487    -1.1133 C.3     
   6 N6             1.4977     1.5944    -0.1798 N.3     
   7 N7            -0.4694    -2.4036     0.7983 N.2     
   8 N8            -0.9355    -1.0843     0.6872 N.am    
   9 C9             0.7883    -2.4316     0.4055 C.2     
  10 C10           -2.1746    -0.6520     0.9942 C.2     
  11 O11           -2.4605     0.5207     0.8557 O.2     
  12 N12           -3.0965    -1.5206     1.4549 N.am    
  13 C13            1.5802     3.0093    -0.5660 C.3     
  14 C14           -5.0609    -1.9764     2.8048 C.2     
  15 C15           -4.4433    -1.0507     1.7886 C.3     
  16 C16           -5.3051    -1.0332     0.5245 C.3     
  17 C17           -5.3462    -2.4362    -0.0843 C.3     
  18 O18           -4.5974    -3.0839     2.9769 O.2     
  19 C19           -6.7254    -0.5904     0.8817 C.3     
  20 C20           -4.7055    -0.0553    -0.4880 C.3     
  21 N21           -6.1283    -1.5737     3.5223 N.am    
  22 C22           -6.7773    -2.5004     4.4530 C.3     
  23 C23           -7.9535    -1.7985     5.1347 C.3     
  24 O24           -8.9494    -1.4824     4.1599 O.3     
  25 C25            1.6629    -3.6293     0.3640 C.ar    
  26 C26            1.1876    -4.8252    -0.1760 C.ar    
  27 C27            2.0068    -5.9380    -0.2121 C.ar    
  28 C28            3.2951    -5.8678     0.2855 C.ar    
  29 C29            3.7720    -4.6834     0.8225 C.ar    
  30 C30            2.9633    -3.5627     0.8585 C.ar    
  31 F31            5.0316    -4.6217     1.3070 F       
  32 F32           -0.0710    -4.8953    -0.6621 F       
  33 H33           -0.4230     1.3524    -1.0119 H       
  34 H34           -0.3966     1.6953     0.7374 H       
  35 H35            3.1941    -0.5564     0.3332 H       
  36 H36            2.8610    -1.3234    -1.2425 H       
  37 H37            3.2179     1.2135    -1.3245 H       
  38 H38            1.6937     0.6398    -2.0414 H       
  39 H39           -2.8682    -2.4568     1.5655 H       
  40 H40            1.0798     3.6207     0.1850 H       
  41 H41            2.6266     3.3060    -0.6377 H       
  42 H42            1.0954     3.1512    -1.5319 H       
  43 H43           -4.3848    -0.0440     2.2024 H       
  44 H44           -5.7733    -3.1329     0.6370 H       
  45 H45           -5.9601    -2.4237    -0.9848 H       
  46 H46           -4.3343    -2.7516    -0.3387 H       
  47 H47           -6.7019     0.4281     1.2691 H       
  48 H48           -7.3520    -0.6257    -0.0096 H       
  49 H49           -7.1343    -1.2582     1.6399 H       
  50 H50           -3.6937    -0.3707    -0.7424 H       
  51 H51           -5.3195    -0.0428    -1.3885 H       
  52 H52           -4.6763     0.9443    -0.0543 H       
  53 H53           -6.4669    -0.6702     3.4225 H       
  54 H54           -7.1409    -3.3700     3.9055 H       
  55 H55           -6.0585    -2.8205     5.2073 H       
  56 H56           -8.3811    -2.4571     5.8907 H       
  57 H57           -7.6041    -0.8808     5.6079 H       
  58 H58           -9.7262    -1.0346     4.5221 H       
  59 H59            1.6399    -6.8641    -0.6294 H       
  60 H60            3.9316    -6.7398     0.2556 H       
  61 H61            3.3376    -2.6385     1.2734 H       
@<TRIPOS>BOND
   1    1    2 1
   2    1    6 1
   3    1   33 1
   4    1   34 1
   5    2    3 2
   6    2    8 1
   7    3    4 1
   8    3    9 1
   9    4    5 1
  10    4   35 1
  11    4   36 1
  12    5    6 1
  13    5   37 1
  14    5   38 1
  15    6   13 1
  16    7    8 1
  17    7    9 2
  18    8   10 am
  19    9   25 1
  20   10   11 2
  21   10   12 am
  22   12   15 1
  23   12   39 1
  24   13   40 1
  25   13   41 1
  26   13   42 1
  27   14   18 2
  28   14   21 am
  29   14   15 1
  30   15   16 1
  31   15   43 1
  32   16   17 1
  33   16   19 1
  34   16   20 1
  35   17   44 1
  36   17   45 1
  37   17   46 1
  38   19   47 1
  39   19   48 1
  40   19   49 1
  41   20   50 1
  42   20   51 1
  43   20   52 1
  44   21   22 1
  45   21   53 1
  46   22   23 1
  47   22   54 1
  48   22   55 1
  49   23   24 1
  50   23   56 1
  51   23   57 1
  52   24   58 1
  53   25   26 ar
  54   25   30 ar
  55   26   27 ar
  56   26   32 1
  57   27   28 ar
  58   27   59 1
  59   28   29 ar
  60   28   60 1
  61   29   30 ar
  62   29   31 1
  63   30   61 1

#	End of record

