#	Name: ASD01910346
#	Creating user name:	WinNT
#	Creation time:	15. 06. 2019 19:55

#	Modifying user name:	WinNT
#	Modification time:	15. 06. 2019 19:55

#	Program:	/corina/corina34_cracker 3.40 0067  02.08.2006

@<TRIPOS>MOLECULE
ASD01910346
  36   38    0    0    0
SMALL
NO_CHARGES


@<TRIPOS>ATOM
   1 C1            -0.0456     1.4243    -0.2647 C.ar    
   2 C2            -0.0213    -0.0070    -0.2250 C.1     
   3 C3            -0.0015    -1.1804    -0.1925 C.1     
   4 C4             0.0228    -2.6116    -0.1529 C.ar    
   5 C5            -1.1377    -3.3227     0.1731 C.ar    
   6 C6            -1.1138    -4.6875     0.2107 C.ar    
   7 C7             0.0697    -5.3746    -0.0759 C.ar    
   8 C8             1.2294    -4.6648    -0.4017 C.ar    
   9 C9             1.2054    -3.3001    -0.4458 C.ar    
  10 C10            0.0949    -6.8499    -0.0340 C.2     
  11 O11           -0.9405    -7.4719     0.1050 O.2     
  12 N12            1.2657    -7.5074    -0.1500 N.am    
  13 C13            1.1120     2.1367    -0.5900 C.ar    
  14 C14            1.0833     3.5150    -0.6272 C.ar    
  15 C15           -0.0898     4.1948    -0.3426 C.ar    
  16 C16           -1.2437     3.4938    -0.0181 C.ar    
  17 C17           -1.2287     2.1141     0.0162 C.ar    
  18 F18           -0.1110     5.5451    -0.3804 F       
  19 F19           -2.3841     4.1631     0.2592 F       
  20 C20            1.7002    -8.9118    -0.1077 C.3     
  21 C21            3.0721    -8.4164     0.3705 C.3     
  22 C22            2.6700    -7.1367    -0.3810 C.3     
  23 O23            3.1776    -8.2605     1.7871 O.3     
  24 H24           -2.0518    -2.7921     0.3952 H       
  25 H25           -2.0093    -5.2364     0.4623 H       
  26 H26            2.1434    -5.1961    -0.6226 H       
  27 H27            2.1013    -2.7520    -0.6974 H       
  28 H28            2.0277     1.6087    -0.8115 H       
  29 H29            1.9777     4.0657    -0.8786 H       
  30 H30           -2.1263     1.5690     0.2683 H       
  31 H31            1.1707    -9.5078     0.6355 H       
  32 H32            1.7280    -9.3872    -1.0881 H       
  33 H33            3.9169    -8.9448    -0.0712 H       
  34 H34            2.9568    -7.1426    -1.4326 H       
  35 H35            2.9652    -6.2213     0.1318 H       
  36 H36            4.0430    -7.9483     2.0850 H       
@<TRIPOS>BOND
   1    1    2 1
   2    1   13 ar
   3    1   17 ar
   4    2    3 3
   5    3    4 1
   6    4    5 ar
   7    4    9 ar
   8    5    6 ar
   9    5   24 1
  10    6    7 ar
  11    6   25 1
  12    7    8 ar
  13    7   10 1
  14    8    9 ar
  15    8   26 1
  16    9   27 1
  17   10   11 2
  18   10   12 am
  19   12   20 1
  20   12   22 1
  21   13   14 ar
  22   13   28 1
  23   14   15 ar
  24   14   29 1
  25   15   16 ar
  26   15   18 1
  27   16   17 ar
  28   16   19 1
  29   17   30 1
  30   20   21 1
  31   20   31 1
  32   20   32 1
  33   21   22 1
  34   21   23 1
  35   21   33 1
  36   22   34 1
  37   22   35 1
  38   23   36 1

#	End of record

