#	Name: ASD01916961
#	Creating user name:	WinNT
#	Creation time:	15. 06. 2019 20:08

#	Modifying user name:	WinNT
#	Modification time:	15. 06. 2019 20:08

#	Program:	/corina/corina34_cracker 3.40 0067  02.08.2006

@<TRIPOS>MOLECULE
ASD01916961
  43   46    0    0    0
SMALL
NO_CHARGES


@<TRIPOS>ATOM
   1 C1            -0.0171     1.4090     0.0115 C.ar    
   2 C2             0.0024    -0.0032     0.0105 C.ar    
   3 C3            -1.1905    -0.7233     0.0239 C.ar    
   4 C4            -2.3847    -0.0604     0.0369 C.ar    
   5 C5            -2.4218     1.3393     0.0367 C.ar    
   6 C6            -1.2436     2.0760     0.0289 C.ar    
   7 N7             1.1584     2.0793     0.0012 N.2     
   8 C8             2.3140     1.4698    -0.0111 C.2     
   9 N9             2.4236     0.1141    -0.0185 N.am    
  10 C10            1.3137    -0.6680    -0.0055 C.2     
  11 C11           -3.7258     2.0395     0.0501 C.2     
  12 O12            1.4016    -1.8819    -0.0067 O.2     
  13 N13           -4.8716     1.3300     0.0623 N.am    
  14 C14           -6.0952     1.9848     0.1837 C.ar    
  15 N15           -6.1219     3.2930     0.3836 N.ar    
  16 C16           -7.2587     3.9516     0.5040 C.ar    
  17 C17           -8.4700     3.2935     0.4254 C.ar    
  18 C18           -8.4857     1.9210     0.2164 C.ar    
  19 C19           -7.2776     1.2590     0.0880 C.ar    
  20 O20           -3.7633     3.2542     0.0500 O.2     
  21 C21            3.7015     2.0910    -0.0176 C.3     
  22 C22            4.6401     0.9390     0.4009 C.3     
  23 C23            3.8366    -0.3009    -0.0424 C.3     
  24 C24            5.9738     1.0218    -0.3443 C.3     
  25 C25            4.8609     0.9355     1.9149 C.3     
  26 H26           -1.1709    -1.8032     0.0237 H       
  27 H27           -3.3080    -0.6206     0.0470 H       
  28 H28           -1.2764     3.1555     0.0292 H       
  29 H29           -4.8443     0.3633    -0.0134 H       
  30 H30           -7.2416     5.0192     0.6664 H       
  31 H31           -9.3957     3.8407     0.5258 H       
  32 H32           -9.4198     1.3830     0.1512 H       
  33 H33           -7.2529     0.1918    -0.0757 H       
  34 H34            3.9554     2.4453    -1.0166 H       
  35 H35            3.7564     2.9075     0.7024 H       
  36 H36            3.9995    -1.1239     0.6535 H       
  37 H37            4.1256    -0.5964    -1.0509 H       
  38 H38            6.4719     1.9587    -0.0948 H       
  39 H39            6.6068     0.1845    -0.0505 H       
  40 H40            5.7930     0.9813    -1.4184 H       
  41 H41            3.9012     0.8346     2.4217 H       
  42 H42            5.5048     0.0990     2.1862 H       
  43 H43            5.3338     1.8705     2.2152 H       
@<TRIPOS>BOND
   1    1    2 ar
   2    1    7 1
   3    1    6 ar
   4    2    3 ar
   5    2   10 1
   6    3    4 ar
   7    3   26 1
   8    4    5 ar
   9    4   27 1
  10    5    6 ar
  11    5   11 1
  12    6   28 1
  13    7    8 2
  14    8    9 1
  15    8   21 1
  16    9   10 am
  17    9   23 1
  18   10   12 2
  19   11   13 am
  20   11   20 2
  21   13   14 1
  22   13   29 1
  23   14   15 ar
  24   14   19 ar
  25   15   16 ar
  26   16   17 ar
  27   16   30 1
  28   17   18 ar
  29   17   31 1
  30   18   19 ar
  31   18   32 1
  32   19   33 1
  33   21   22 1
  34   21   34 1
  35   21   35 1
  36   22   23 1
  37   22   24 1
  38   22   25 1
  39   23   36 1
  40   23   37 1
  41   24   38 1
  42   24   39 1
  43   24   40 1
  44   25   41 1
  45   25   42 1
  46   25   43 1

#	End of record

