#	Name: ASD01028676
#	Creating user name:	WinNT
#	Creation time:	15. 06. 2019 18:57

#	Modifying user name:	WinNT
#	Modification time:	15. 06. 2019 18:57

#	Program:	/corina/corina34_cracker 3.40 0067  02.08.2006

@<TRIPOS>MOLECULE
ASD01028676
  41   45    0    0    0
SMALL
NO_CHARGES


@<TRIPOS>ATOM
   1 N1            -0.0157     1.3066     0.0092 N.ar    
   2 C2             0.0021    -0.0041     0.0020 C.ar    
   3 C3             1.1967    -0.7211    -0.0128 C.ar    
   4 C4             2.3902    -0.0572    -0.0206 C.ar    
   5 C5             2.3672     1.3504    -0.0132 C.ar    
   6 C6             3.5535     2.1011    -0.0200 C.ar    
   7 C7             3.4892     3.4613    -0.0122 C.ar    
   8 C8             2.2611     4.1187     0.0030 C.ar    
   9 C9             1.0917     3.4224     0.0100 C.ar    
  10 C10            1.1167     2.0170     0.0022 C.ar    
  11 C11            4.7634     4.2659    -0.0195 C.3     
  12 F12            5.7615     3.5527    -0.6920 F       
  13 F13            4.5418     5.4842    -0.6705 F       
  14 C14            6.3967     5.2619     3.2236 C.ar    
  15 C15            6.3902     5.2728     1.8171 C.ar    
  16 C16            7.4142     5.9271     1.1301 C.ar    
  17 C17            8.4109     6.5488     1.8796 C.ar    
  18 C18            8.3476     6.4939     3.2738 C.ar    
  19 N19            7.3687     5.8683     3.8900 N.ar    
  20 O20            5.3044     4.5746     3.6142 O.3     
  21 N21            4.5895     4.1396     2.4756 N.2     
  22 C22            5.2011     4.5266     1.3988 C.2     
  23 C23            9.5256     7.2597     1.2051 C.ar    
  24 C24           10.5183     7.8788     1.9613 C.ar    
  25 C25           11.5549     8.5400     1.3289 C.ar    
  26 C26           11.6072     8.5873    -0.0544 C.ar    
  27 C27           10.6223     7.9731    -0.8100 C.ar    
  28 C28            9.5852     7.3048    -0.1859 C.ar    
  29 F29           10.6781     8.0223    -2.1590 F       
  30 F30           12.5180     9.1411     2.0612 F       
  31 H31           -0.9341    -0.5425     0.0081 H       
  32 H32            1.1789    -1.8009    -0.0177 H       
  33 H33            3.3255    -0.5970    -0.0317 H       
  34 H34            4.5116     1.6027    -0.0311 H       
  35 H35            2.2365     5.1984     0.0097 H       
  36 H36            0.1481     3.9476     0.0221 H       
  37 H37            7.4336     5.9504     0.0505 H       
  38 H38            9.1187     6.9745     3.8577 H       
  39 H39           10.4781     7.8427     3.0399 H       
  40 H40           12.4181     9.1049    -0.5451 H       
  41 H41            8.8200     6.8224    -0.7759 H       
@<TRIPOS>BOND
   1    1    2 ar
   2    1   10 ar
   3    2    3 ar
   4    2   31 1
   5    3    4 ar
   6    3   32 1
   7    4    5 ar
   8    4   33 1
   9    5    6 ar
  10    5   10 ar
  11    6    7 ar
  12    6   34 1
  13    7    8 ar
  14    7   11 1
  15    8    9 ar
  16    8   35 1
  17    9   10 ar
  18    9   36 1
  19   11   12 1
  20   11   13 1
  21   11   22 1
  22   14   15 ar
  23   14   19 ar
  24   14   20 1
  25   15   16 ar
  26   15   22 1
  27   16   17 ar
  28   16   37 1
  29   17   18 ar
  30   17   23 1
  31   18   19 ar
  32   18   38 1
  33   20   21 1
  34   21   22 2
  35   23   24 ar
  36   23   28 ar
  37   24   25 ar
  38   24   39 1
  39   25   26 ar
  40   25   30 1
  41   26   27 ar
  42   26   40 1
  43   27   28 ar
  44   27   29 1
  45   28   41 1

#	End of record

