#	Name: ASD01913658
#	Creating user name:	WinNT
#	Creation time:	15. 06. 2019 20:02

#	Modifying user name:	WinNT
#	Modification time:	15. 06. 2019 20:02

#	Program:	/corina/corina34_cracker 3.40 0067  02.08.2006

@<TRIPOS>MOLECULE
ASD01913658
  39   41    0    0    0
SMALL
NO_CHARGES


@<TRIPOS>ATOM
   1 C1             0.0043     1.4101     0.0979 C.ar    
   2 C2             0.0144     0.0469    -0.1431 C.ar    
   3 C3            -1.1749    -0.6268    -0.3483 C.ar    
   4 C4            -2.3739     0.0600    -0.3133 C.ar    
   5 C5            -2.3852     1.4216    -0.0727 C.ar    
   6 C6            -1.1979     2.0961     0.1389 C.ar    
   7 C7            -3.6932     2.1691    -0.0354 C.3     
   8 O8            -4.2030     2.1707     1.2996 O.3     
   9 C9            -5.3816     2.8061     1.5072 C.ar    
  10 N10           -5.9985     3.3859     0.4891 N.ar    
  11 C11           -7.1453     4.0149     0.6399 C.ar    
  12 C12           -7.7545     4.0918     1.8929 C.ar    
  13 C13           -7.1268     3.4878     2.9926 C.ar    
  14 C14           -5.9292     2.8349     2.7863 C.ar    
  15 C15           -9.0396     4.7984     2.0589 C.2     
  16 N16           -9.6336     5.3755     0.9956 N.am    
  17 O17           -9.5624     4.8599     3.1549 O.2     
  18 F18            1.1662     2.0697     0.2986 F       
  19 C19          -10.8968     5.9598     1.1321 C.ar    
  20 C20          -11.2370     6.6139     2.3084 C.ar    
  21 C21          -12.4874     7.1912     2.4398 C.ar    
  22 C22          -13.3981     7.1161     1.3991 C.ar    
  23 C23          -13.0602     6.4649     0.2271 C.ar    
  24 C24          -11.8114     5.8918     0.0885 C.ar    
  25 F25          -12.8202     7.8281     3.5838 F       
  26 H26            0.9511    -0.4898    -0.1712 H       
  27 H27           -1.1674    -1.6903    -0.5364 H       
  28 H28           -3.3027    -0.4671    -0.4745 H       
  29 H29           -1.2070     3.1595     0.3272 H       
  30 H30           -3.5344     3.1959    -0.3649 H       
  31 H31           -4.4092     1.6817    -0.6972 H       
  32 H32           -7.6188     4.4759    -0.2143 H       
  33 H33           -7.5721     3.5297     3.9757 H       
  34 H34           -5.4182     2.3583     3.6098 H       
  35 H35           -9.1849     5.3855     0.1356 H       
  36 H36          -10.5267     6.6716     3.1199 H       
  37 H37          -14.3740     7.5666     1.5033 H       
  38 H38          -13.7724     6.4079    -0.5827 H       
  39 H39          -11.5489     5.3835    -0.8275 H       
@<TRIPOS>BOND
   1    1    2 ar
   2    1   18 1
   3    1    6 ar
   4    2    3 ar
   5    2   26 1
   6    3    4 ar
   7    3   27 1
   8    4    5 ar
   9    4   28 1
  10    5    6 ar
  11    5    7 1
  12    6   29 1
  13    7    8 1
  14    7   30 1
  15    7   31 1
  16    8    9 1
  17    9   10 ar
  18    9   14 ar
  19   10   11 ar
  20   11   12 ar
  21   11   32 1
  22   12   13 ar
  23   12   15 1
  24   13   14 ar
  25   13   33 1
  26   14   34 1
  27   15   16 am
  28   15   17 2
  29   16   19 1
  30   16   35 1
  31   19   20 ar
  32   19   24 ar
  33   20   21 ar
  34   20   36 1
  35   21   22 ar
  36   21   25 1
  37   22   23 ar
  38   22   37 1
  39   23   24 ar
  40   23   38 1
  41   24   39 1

#	End of record

