#	Name: ASD01810848
#	Creating user name:	WinNT
#	Creation time:	15. 06. 2019 19:25

#	Modifying user name:	WinNT
#	Modification time:	15. 06. 2019 19:25

#	Program:	/corina/corina34_cracker 3.40 0067  02.08.2006

@<TRIPOS>MOLECULE
ASD01810848
  65   70    0    0    0
SMALL
NO_CHARGES


@<TRIPOS>ATOM
   1 C1            -0.0178     1.4608     0.0101 C.3     
   2 C2            -1.0644    -4.2858    -1.9275 C.ar    
   3 C3            -1.1161    -2.9333    -1.9768 C.ar    
   4 C4            -0.5355    -2.1451    -0.9709 C.ar    
   5 C5             0.1185    -2.7475     0.1193 C.ar    
   6 C6             0.1784    -4.2050     0.1782 C.ar    
   7 C7             0.8125    -4.8707     1.2321 C.ar    
   8 C8             0.8454    -6.2347     1.2472 C.ar    
   9 C9             0.2553    -6.9729     0.2263 C.ar    
  10 C10           -0.3705    -6.3547    -0.8149 C.ar    
  11 C11           -0.4242    -4.9532    -0.8623 C.ar    
  12 C12           -1.7072    -5.0918    -3.0268 C.3     
  13 C13           -4.1794    -4.6610    -2.9062 C.ar    
  14 C14           -3.1015    -5.4851    -2.6118 C.ar    
  15 C15           -3.3200    -6.6687    -1.9354 C.ar    
  16 N16           -4.5365    -7.0233    -1.5676 N.ar    
  17 C17           -5.4430    -5.0592    -2.5078 C.ar    
  18 C18           -5.5899    -6.2648    -1.8298 C.ar    
  19 C19           -0.5859    -0.6781    -1.0136 C.2     
  20 N20            0.0021    -0.0041     0.0020 N.am    
  21 C21            0.6101    -0.6745     1.0123 C.2     
  22 N22            0.6668    -1.9731     1.0706 N.2     
  23 O23           -1.1354    -0.0906    -1.9279 O.2     
  24 C24            1.4176     1.9904    -0.0008 C.3     
  25 C25            1.3968     3.5202     0.0076 C.3     
  26 C26            0.6807     4.0136     1.2664 C.3     
  27 C27           -0.7547     3.4840     1.2773 C.3     
  28 C28           -0.7339     1.9542     1.2689 C.3     
  29 O29            2.0865     1.5295    -1.1765 O.3     
  30 N30           -6.8538    -6.6771    -1.4237 N.3     
  31 C31           -6.7881    -7.9659    -0.7309 C.3     
  32 C32           -8.0702    -8.1877     0.0788 C.3     
  33 S33           -9.4784    -8.2353    -1.0715 S.3     
  34 C34           -9.2302    -6.7109    -2.0324 C.3     
  35 C35           -7.7884    -6.6924    -2.5514 C.3     
  36 H36           -0.5450     1.8219    -0.8730 H       
  37 H37           -1.6133    -2.4520    -2.8059 H       
  38 H38            1.2743    -4.3079     2.0299 H       
  39 H39            1.3357    -6.7475     2.0615 H       
  40 H40            0.2940    -8.0517     0.2591 H       
  41 H41           -0.8241    -6.9414    -1.6001 H       
  42 H42           -1.7541    -4.4931    -3.9364 H       
  43 H43           -1.1167    -5.9890    -3.2123 H       
  44 H44           -4.0342    -3.7280    -3.4303 H       
  45 H45           -2.4844    -7.3129    -1.7047 H       
  46 H46           -6.3036    -4.4422    -2.7201 H       
  47 H47            1.0691    -0.1035     1.8058 H       
  48 H48            1.9448     1.6293     0.8823 H       
  49 H49            2.4194     3.8975    -0.0001 H       
  50 H50            0.8697     3.8813    -0.8754 H       
  51 H51            1.2079     3.6525     2.1495 H       
  52 H52            0.6659     5.1035     1.2724 H       
  53 H53           -1.2649     3.8356     2.1741 H       
  54 H54           -1.2819     3.8451     0.3942 H       
  55 H55           -1.7565     1.5769     1.2766 H       
  56 H56           -0.2067     1.5931     2.1519 H       
  57 H57            3.0034     1.8277    -1.2498 H       
  58 H58           -6.6794    -8.7657    -1.4633 H       
  59 H59           -5.9297    -7.9725    -0.0590 H       
  60 H60           -8.0045    -9.1334     0.6168 H       
  61 H61           -8.2027    -7.3691     0.7863 H       
  62 H62           -9.9226    -6.6917    -2.8739 H       
  63 H63           -9.4008    -5.8439    -1.3942 H       
  64 H64           -7.6345    -5.8024    -3.1614 H       
  65 H65           -7.6102    -7.5807    -3.1574 H       
@<TRIPOS>BOND
   1    1   20 1
   2    1   24 1
   3    1   28 1
   4    1   36 1
   5    2    3 ar
   6    2   11 ar
   7    2   12 1
   8    3    4 ar
   9    3   37 1
  10    4    5 ar
  11    4   19 1
  12    5    6 ar
  13    5   22 1
  14    6    7 ar
  15    6   11 ar
  16    7    8 ar
  17    7   38 1
  18    8    9 ar
  19    8   39 1
  20    9   10 ar
  21    9   40 1
  22   10   11 ar
  23   10   41 1
  24   12   14 1
  25   12   42 1
  26   12   43 1
  27   13   14 ar
  28   13   17 ar
  29   13   44 1
  30   14   15 ar
  31   15   16 ar
  32   15   45 1
  33   16   18 ar
  34   17   18 ar
  35   17   46 1
  36   18   30 1
  37   19   20 am
  38   19   23 2
  39   20   21 1
  40   21   22 2
  41   21   47 1
  42   24   25 1
  43   24   29 1
  44   24   48 1
  45   25   26 1
  46   25   49 1
  47   25   50 1
  48   26   27 1
  49   26   51 1
  50   26   52 1
  51   27   28 1
  52   27   53 1
  53   27   54 1
  54   28   55 1
  55   28   56 1
  56   29   57 1
  57   30   31 1
  58   30   35 1
  59   31   32 1
  60   31   58 1
  61   31   59 1
  62   32   33 1
  63   32   60 1
  64   32   61 1
  65   33   34 1
  66   34   35 1
  67   34   62 1
  68   34   63 1
  69   35   64 1
  70   35   65 1

#	End of record

