#	Name: ASD03540141
#	Creating user name:	WinNT
#	Creation time:	15. 06. 2019 20:42

#	Modifying user name:	WinNT
#	Modification time:	15. 06. 2019 20:42

#	Program:	/corina/corina34_cracker 3.40 0067  02.08.2006

@<TRIPOS>MOLECULE
ASD03540141
  56   58    0    0    0
SMALL
NO_CHARGES


@<TRIPOS>ATOM
   1 C1            -0.0180     1.4730     0.0101 C.2     
   2 C2             0.0021    -0.0041     0.0020 C.ar    
   3 C3             1.2188    -0.6888    -0.0133 C.ar    
   4 C4             1.2303    -2.0682    -0.0203 C.ar    
   5 C5             0.0396    -2.7731    -0.0127 C.ar    
   6 C6            -1.1697    -2.1009     0.0020 C.ar    
   7 C7            -1.1956    -0.7217     0.0154 C.ar    
   8 O8             1.0256     2.0946     0.0035 O.2     
   9 O9            -1.1936     2.1307     0.0193 O.3     
  10 C10            0.0601    -4.2800    -0.0210 C.3     
  11 N11            0.0799    -4.7757     1.3575 N.am    
  12 C12            0.1002    -6.1019     1.5965 C.2     
  13 C13            0.1202    -6.6022     2.9877 C.ar    
  14 C14            0.1412    -7.9730     3.2366 C.ar    
  15 C15            0.1605    -8.4359     4.5502 C.ar    
  16 C16            0.1586    -7.5243     5.6089 C.ar    
  17 C17            0.1377    -6.1674     5.3554 C.ar    
  18 C18            0.1239    -5.7017     4.0553 C.ar    
  19 O19            0.1021    -6.8868     0.6683 O.2     
  20 C20            0.1824    -9.8888     4.8236 C.2     
  21 N21            0.2010   -10.3351     6.0952 N.am    
  22 O22            0.1836   -10.6808     3.9015 O.2     
  23 C23            0.2227   -11.7747     6.3660 C.3     
  24 C24            0.2406   -12.0054     7.8551 C.ar    
  25 C25           -0.9479   -12.1269     8.5492 C.ar    
  26 C26           -0.9307   -12.3393     9.9198 C.ar    
  27 C27            0.2807   -12.4293    10.5904 C.ar    
  28 C28            1.4661   -12.3071     9.8920 C.ar    
  29 C29            1.4463   -12.1011     8.5247 C.ar    
  30 O30           -2.0984   -12.4587    10.6048 O.3     
  31 C31           -2.0045   -12.6762    12.0140 C.3     
  32 C32           -1.1373     3.5816     0.0269 C.3     
  33 H33            2.1488    -0.1398    -0.0199 H       
  34 H34            2.1707    -2.5992    -0.0321 H       
  35 H35           -2.0953    -2.6572     0.0071 H       
  36 H36           -2.1401    -0.1983     0.0318 H       
  37 H37           -0.8298    -4.6526    -0.5283 H       
  38 H38            0.9499    -4.6284    -0.5452 H       
  39 H39            0.0784    -4.1493     2.0982 H       
  40 H40            0.1423    -8.6735     2.4146 H       
  41 H41            0.1732    -7.8819     6.6279 H       
  42 H42            0.1364    -5.4669     6.1774 H       
  43 H43            0.1118    -4.6389     3.8638 H       
  44 H44            0.2000    -9.7031     6.8310 H       
  45 H45           -0.6656   -12.2385     5.9371 H       
  46 H46            1.1141   -12.2150     5.9193 H       
  47 H47           -1.8895   -12.0562     8.0250 H       
  48 H48            0.2967   -12.5943    11.6576 H       
  49 H49            2.4092   -12.3767    10.4136 H       
  50 H50            2.3743   -12.0106     7.9797 H       
  51 H51           -1.4581   -13.6001    12.2034 H       
  52 H52           -1.4778   -11.8413    12.4762 H       
  53 H53           -3.0060   -12.7531    12.4373 H       
  54 H54           -0.6055     3.9199     0.9162 H       
  55 H55           -0.6140     3.9295    -0.8637 H       
  56 H56           -2.1501     3.9844     0.0339 H       
@<TRIPOS>BOND
   1    1    2 1
   2    1    8 2
   3    1    9 1
   4    2    3 ar
   5    2    7 ar
   6    3    4 ar
   7    3   33 1
   8    4    5 ar
   9    4   34 1
  10    5    6 ar
  11    5   10 1
  12    6    7 ar
  13    6   35 1
  14    7   36 1
  15    9   32 1
  16   10   11 1
  17   10   37 1
  18   10   38 1
  19   11   12 am
  20   11   39 1
  21   12   13 1
  22   12   19 2
  23   13   14 ar
  24   13   18 ar
  25   14   15 ar
  26   14   40 1
  27   15   16 ar
  28   15   20 1
  29   16   17 ar
  30   16   41 1
  31   17   18 ar
  32   17   42 1
  33   18   43 1
  34   20   21 am
  35   20   22 2
  36   21   23 1
  37   21   44 1
  38   23   24 1
  39   23   45 1
  40   23   46 1
  41   24   25 ar
  42   24   29 ar
  43   25   26 ar
  44   25   47 1
  45   26   27 ar
  46   26   30 1
  47   27   28 ar
  48   27   48 1
  49   28   29 ar
  50   28   49 1
  51   29   50 1
  52   30   31 1
  53   31   51 1
  54   31   52 1
  55   31   53 1
  56   32   54 1
  57   32   55 1
  58   32   56 1

#	End of record

