#	Name: ASD03540410
#	Creating user name:	WinNT
#	Creation time:	15. 06. 2019 20:43

#	Modifying user name:	WinNT
#	Modification time:	15. 06. 2019 20:43

#	Program:	/corina/corina34_cracker 3.40 0067  02.08.2006

@<TRIPOS>MOLECULE
ASD03540410
  51   55    0    0    0
SMALL
NO_CHARGES


@<TRIPOS>ATOM
   1 N1            -0.0161     1.3395     0.0094 N.am    
   2 C2             0.0021    -0.0041     0.0020 C.2     
   3 N3             1.1389    -0.7174    -0.0126 N.am    
   4 C4             2.3459    -0.1107    -0.0209 C.2     
   5 C5             2.3855     1.3634    -0.0133 C.ar    
   6 C6             3.5865     2.0608    -0.0206 C.ar    
   7 C7             3.5651     3.4551    -0.0124 C.ar    
   8 C8             2.3428     4.1384     0.0028 C.ar    
   9 C9             1.1615     3.4520     0.0104 C.ar    
  10 C10            1.1632     2.0628     0.0020 C.ar    
  11 C11            4.8327     4.2120    -0.0195 C.2     
  12 O12            5.8944     3.6196    -0.0323 O.2     
  13 N13            4.8130     5.5596    -0.0116 N.am    
  14 C14            6.0709     6.3106    -0.0186 C.3     
  15 O15            4.9671    11.8144     0.2835 O.3     
  16 C16            5.3604    12.0031     1.6557 C.3     
  17 O17            5.2074    10.6953     2.2383 O.3     
  18 C18            5.3762     9.8154     1.2085 C.ar    
  19 C19            5.2285    10.5037     0.0063 C.ar    
  20 C20            5.6487     8.4575     1.1959 C.ar    
  21 C21            5.7739     7.7880    -0.0075 C.ar    
  22 C22            5.6278     8.4709    -1.2002 C.ar    
  23 C23            5.3552     9.8266    -1.1952 C.ar    
  24 S24           -1.4903    -0.8429     0.0123 S.2     
  25 O25            3.3721    -0.7627    -0.0337 O.2     
  26 C26            1.0695    -2.1807    -0.0194 C.3     
  27 C27            1.0320    -2.6753    -1.4424 C.ar    
  28 C28            2.2105    -2.9587    -2.1070 C.ar    
  29 C29            2.1760    -3.4124    -3.4123 C.ar    
  30 C30            0.9630    -3.5830    -4.0529 C.ar    
  31 C31           -0.2156    -3.3004    -3.3880 C.ar    
  32 C32           -0.1813    -2.8509    -2.0813 C.ar    
  33 H33           -0.8657     1.8076     0.0159 H       
  34 H34            4.5266     1.5292    -0.0320 H       
  35 H35            2.3339     5.2183     0.0090 H       
  36 H36            0.2252     3.9901     0.0225 H       
  37 H37            3.9660     6.0322    -0.0014 H       
  38 H38            6.6542     6.0506     0.8648 H       
  39 H39            6.6383     6.0607    -0.9151 H       
  40 H40            6.3986    12.3297     1.7150 H       
  41 H41            4.7034    12.7206     2.1472 H       
  42 H42            5.7640     7.9215     2.1263 H       
  43 H43            5.7263     7.9445    -2.1381 H       
  44 H44            5.2408    10.3575    -2.1287 H       
  45 H45            1.9463    -2.5883     0.4839 H       
  46 H46            0.1684    -2.5041     0.5016 H       
  47 H47            3.1582    -2.8254    -1.6065 H       
  48 H48            3.0968    -3.6332    -3.9317 H       
  49 H49            0.9361    -3.9367    -5.0730 H       
  50 H50           -1.1633    -3.4334    -3.8886 H       
  51 H51           -1.1022    -2.6336    -1.5606 H       
@<TRIPOS>BOND
   1    1    2 am
   2    1   10 1
   3    1   33 1
   4    2    3 am
   5    2   24 2
   6    3    4 am
   7    3   26 1
   8    4    5 1
   9    4   25 2
  10    5    6 ar
  11    5   10 ar
  12    6    7 ar
  13    6   34 1
  14    7    8 ar
  15    7   11 1
  16    8    9 ar
  17    8   35 1
  18    9   10 ar
  19    9   36 1
  20   11   12 2
  21   11   13 am
  22   13   14 1
  23   13   37 1
  24   14   21 1
  25   14   38 1
  26   14   39 1
  27   15   16 1
  28   15   19 1
  29   16   17 1
  30   16   40 1
  31   16   41 1
  32   17   18 1
  33   18   19 ar
  34   18   20 ar
  35   19   23 ar
  36   20   21 ar
  37   20   42 1
  38   21   22 ar
  39   22   23 ar
  40   22   43 1
  41   23   44 1
  42   26   27 1
  43   26   45 1
  44   26   46 1
  45   27   28 ar
  46   27   32 ar
  47   28   29 ar
  48   28   47 1
  49   29   30 ar
  50   29   48 1
  51   30   31 ar
  52   30   49 1
  53   31   32 ar
  54   31   50 1
  55   32   51 1

#	End of record

