#	Name: ASD04882035
#	Creating user name:	WinNT
#	Creation time:	15. 06. 2019 20:53

#	Modifying user name:	WinNT
#	Modification time:	15. 06. 2019 20:53

#	Program:	/corina/corina34_cracker 3.40 0067  02.08.2006

@<TRIPOS>MOLECULE
ASD04882035
  77   81    0    0    0
SMALL
NO_CHARGES


@<TRIPOS>ATOM
   1 C1             1.5171     1.4362     1.7944 C.ar    
   2 C2             1.4794     0.0560     1.8135 C.ar    
   3 C3             2.6604    -0.6682     1.9183 C.ar    
   4 C4             3.8754    -0.0007     2.0034 C.ar    
   5 C5             3.9059     1.3801     1.9837 C.ar    
   6 C6             2.7287     2.0977     1.8794 C.ar    
   7 C7             5.1590    -0.7820     2.1177 C.3     
   8 N8             2.6259    -2.0644     1.9384 N.3     
   9 C9             3.2416    -2.6239     0.7270 C.3     
  10 C10            3.2555    -4.1512     0.8239 C.3     
  11 N11            1.8798    -4.6418     0.9867 N.3     
  12 C12            1.2642    -4.0822     2.1982 C.3     
  13 C13            1.2503    -2.5549     2.1012 C.3     
  14 C14            1.8454    -6.0336     1.0068 C.ar    
  15 C15            2.1830    -6.7566    -0.1407 C.ar    
  16 C16            2.1488    -8.1382    -0.1205 C.ar    
  17 C17            1.7764    -8.8079     1.0484 C.ar    
  18 C18            1.4400    -8.0787     2.1924 C.ar    
  19 C19            1.4808    -6.7023     2.1698 C.ar    
  20 C20            1.7379   -10.2825     1.0745 C.2     
  21 N21            1.3786   -10.9273     2.2021 N.am    
  22 O22            2.0303   -10.9160     0.0787 O.2     
  23 C23            1.3405   -12.3916     2.2281 C.3     
  24 C24            0.9049   -12.8659     3.6160 C.3     
  25 C25            0.8650   -14.3951     3.6431 C.3     
  26 N26            0.4479   -14.8493     4.9720 N.am    
  27 C27           -0.9460   -15.0821     5.3678 C.3     
  28 C28           -0.9361   -15.1135     6.9123 C.3     
  29 C29            0.5190   -15.5439     7.2095 C.3     
  30 C30            1.2932   -15.1118     5.9836 C.2     
  31 O31            2.5003   -15.0100     5.9246 O.2     
  32 N32            2.5554    -6.0816    -1.3105 N.am    
  33 C33            3.3606    -6.6831    -2.2084 C.2     
  34 O34            3.7001    -7.8386    -2.0423 O.2     
  35 C35            3.8309    -5.9379    -3.3953 C.ar    
  36 C36            4.6648    -6.5581    -4.3269 C.ar    
  37 C37            3.4381    -4.6130    -3.5918 C.ar    
  38 C38            3.8815    -3.9225    -4.7034 C.ar    
  39 C39            4.7141    -4.5436    -5.6209 C.ar    
  40 C40            5.1010    -5.8581    -5.4331 C.ar    
  41 F41            3.5026    -2.6401    -4.8963 F       
  42 H42            0.5998     1.9997     1.7085 H       
  43 H43            0.5329    -0.4599     1.7475 H       
  44 H44            4.8504     1.8998     2.0499 H       
  45 H45            2.7554     3.1773     1.8639 H       
  46 H46            5.5089    -1.0536     1.1217 H       
  47 H47            5.9133    -0.1712     2.6137 H       
  48 H48            4.9832    -1.6864     2.7002 H       
  49 H49            2.6655    -2.3202    -0.1472 H       
  50 H50            4.2635    -2.2559     0.6352 H       
  51 H51            3.6854    -4.5695    -0.0863 H       
  52 H52            3.8542    -4.4557     1.6824 H       
  53 H53            0.2423    -4.4502     2.2899 H       
  54 H54            1.8403    -4.3859     3.0723 H       
  55 H55            0.8204    -2.1366     3.0114 H       
  56 H56            0.6516    -2.2504     1.2427 H       
  57 H57            2.4089    -8.6990    -1.0061 H       
  58 H58            1.1520    -8.5952     3.0961 H       
  59 H59            1.2205    -6.1410     3.0550 H       
  60 H60            1.1454   -10.4219     2.9965 H       
  61 H61            0.6307   -12.7498     1.4824 H       
  62 H62            2.3321   -12.7849     2.0043 H       
  63 H63            1.6146   -12.5077     4.3617 H       
  64 H64           -0.0867   -12.4726     3.8397 H       
  65 H65            0.1553   -14.7534     2.8974 H       
  66 H66            1.8566   -14.7885     3.4193 H       
  67 H67           -1.5800   -14.2704     5.0112 H       
  68 H68           -1.2958   -16.0361     4.9734 H       
  69 H69           -1.1425   -14.1256     7.3239 H       
  70 H70           -1.6456   -15.8487     7.2920 H       
  71 H71            0.8929   -15.0363     8.0987 H       
  72 H72            0.5795   -16.6253     7.3326 H       
  73 H73            2.2336    -5.1812    -1.4742 H       
  74 H74            4.9685    -7.5844    -4.1820 H       
  75 H75            2.7891    -4.1290    -2.8770 H       
  76 H76            5.0585    -4.0004    -6.4885 H       
  77 H77            5.7502    -6.3363    -6.1515 H       
@<TRIPOS>BOND
   1    1    2 ar
   2    1    6 ar
   3    1   42 1
   4    2    3 ar
   5    2   43 1
   6    3    4 ar
   7    3    8 1
   8    4    5 ar
   9    4    7 1
  10    5    6 ar
  11    5   44 1
  12    6   45 1
  13    7   46 1
  14    7   47 1
  15    7   48 1
  16    8    9 1
  17    8   13 1
  18    9   10 1
  19    9   49 1
  20    9   50 1
  21   10   11 1
  22   10   51 1
  23   10   52 1
  24   11   12 1
  25   11   14 1
  26   12   13 1
  27   12   53 1
  28   12   54 1
  29   13   55 1
  30   13   56 1
  31   14   15 ar
  32   14   19 ar
  33   15   16 ar
  34   15   32 1
  35   16   17 ar
  36   16   57 1
  37   17   18 ar
  38   17   20 1
  39   18   19 ar
  40   18   58 1
  41   19   59 1
  42   20   21 am
  43   20   22 2
  44   21   23 1
  45   21   60 1
  46   23   24 1
  47   23   61 1
  48   23   62 1
  49   24   25 1
  50   24   63 1
  51   24   64 1
  52   25   26 1
  53   25   65 1
  54   25   66 1
  55   26   27 1
  56   26   30 am
  57   27   28 1
  58   27   67 1
  59   27   68 1
  60   28   29 1
  61   28   69 1
  62   28   70 1
  63   29   30 1
  64   29   71 1
  65   29   72 1
  66   30   31 2
  67   32   33 am
  68   32   73 1
  69   33   34 2
  70   33   35 1
  71   35   36 ar
  72   35   37 ar
  73   36   40 ar
  74   36   74 1
  75   37   38 ar
  76   37   75 1
  77   38   39 ar
  78   38   41 1
  79   39   40 ar
  80   39   76 1
  81   40   77 1

#	End of record

