#	Name: ASD02039186
#	Creating user name:	WinNT
#	Creation time:	15. 06. 2019 20:17

#	Modifying user name:	WinNT
#	Modification time:	15. 06. 2019 20:17

#	Program:	/corina/corina34_cracker 3.40 0067  02.08.2006

@<TRIPOS>MOLECULE
ASD02039186
  36   38    0    0    0
SMALL
NO_CHARGES


@<TRIPOS>ATOM
   1 N1            -0.0156     1.3021     0.0092 N.2     
   2 C2             0.0021    -0.0041     0.0020 C.2     
   3 N3             1.2970    -0.3863    -0.0124 N.2     
   4 C4             1.9921     0.7246    -0.0131 C.2     
   5 O5             1.1174     1.7349     0.0007 O.3     
   6 C6             3.4946     0.8408    -0.0264 C.3     
   7 C7             3.9823     0.8869    -1.4515 C.ar    
   8 N8            -1.1043    -0.8429     0.0088 N.pl3   
   9 C9            -3.4687    -1.3889     0.0295 C.ar    
  10 C10           -3.9219    -1.9059     1.2288 C.ar    
  11 C11           -4.8564    -2.9242     1.2336 C.ar    
  12 C12           -5.3383    -3.4262     0.0378 C.ar    
  13 C13           -4.8844    -2.9083    -1.1622 C.ar    
  14 C14           -3.9498    -1.8901    -1.1657 C.ar    
  15 C15            4.1132     2.1026    -2.0971 C.ar    
  16 C16            4.5601     2.1475    -3.4036 C.ar    
  17 C17            4.8775     0.9716    -4.0677 C.ar    
  18 C18            4.7452    -0.2469    -3.4177 C.ar    
  19 C19            4.3034    -0.2860    -2.1094 C.ar    
  20 Cl20          -6.5117    -4.7056     0.0430 Cl      
  21 O21            5.3169     1.0131    -5.3530 O.3     
  22 C22           -2.4544    -0.2744     0.0250 C.3     
  23 H23            3.7929     1.7535     0.4895 H       
  24 H24            3.9302    -0.0211     0.4790 H       
  25 H25           -0.9833    -1.8053     0.0027 H       
  26 H26           -3.5454    -1.5143     2.1622 H       
  27 H27           -5.2101    -3.3283     2.1706 H       
  28 H28           -5.2600    -3.3000    -2.0960 H       
  29 H29           -3.5954    -1.4858    -2.1024 H       
  30 H30            3.8656     3.0177    -1.5798 H       
  31 H31            4.6619     3.0972    -3.9076 H       
  32 H32            4.9917    -1.1637    -3.9326 H       
  33 H33            4.2005    -1.2343    -1.6028 H       
  34 H34            6.2772     1.0881    -5.4382 H       
  35 H35           -2.5810     0.3357     0.9194 H       
  36 H36           -2.5987     0.3446    -0.8605 H       
@<TRIPOS>BOND
   1    1    2 2
   2    1    5 1
   3    2    3 1
   4    2    8 1
   5    3    4 2
   6    4    5 1
   7    4    6 1
   8    6    7 1
   9    6   23 1
  10    6   24 1
  11    7   15 ar
  12    7   19 ar
  13    8   22 1
  14    8   25 1
  15    9   10 ar
  16    9   14 ar
  17    9   22 1
  18   10   11 ar
  19   10   26 1
  20   11   12 ar
  21   11   27 1
  22   12   13 ar
  23   12   20 1
  24   13   14 ar
  25   13   28 1
  26   14   29 1
  27   15   16 ar
  28   15   30 1
  29   16   17 ar
  30   16   31 1
  31   17   18 ar
  32   17   21 1
  33   18   19 ar
  34   18   32 1
  35   19   33 1
  36   21   34 1
  37   22   35 1
  38   22   36 1

#	End of record

