#	Name: ASD06020188
#	Creating user name:	WinNT
#	Creation time:	15. 06. 2019 21:04

#	Modifying user name:	WinNT
#	Modification time:	15. 06. 2019 21:04

#	Program:	/corina/corina34_cracker 3.40 0067  02.08.2006

@<TRIPOS>MOLECULE
ASD06020188
  67   71    0    0    0
SMALL
NO_CHARGES


@<TRIPOS>ATOM
   1 C1             1.1342    -0.2394     0.5550 C.2     
   2 N2             1.6124    -1.3744     0.0077 N.am    
   3 O3            -0.0181    -0.1873     0.9357 O.2     
   4 O4             1.9352     0.8346     0.6849 O.3     
   5 C5             4.9177    -0.7754    -1.1812 C.2     
   6 N6             3.7226    -0.3395    -0.6280 N.pl3   
   7 C7             2.8929    -1.4073    -0.5033 C.2     
   8 C8             3.5475    -2.5390    -0.9753 C.2     
   9 C9             4.8036    -2.1599    -1.3983 C.2     
  10 C10            6.0198     0.0106    -1.4720 C.2     
  11 C11            7.2004    -0.5849    -1.9764 C.2     
  12 C12            8.4552     0.0617    -2.0975 C.2     
  13 C13            9.3230    -0.8421    -2.6194 C.2     
  14 C14            8.5558    -2.0736    -2.8165 C.2     
  15 C15            9.0445    -3.2813    -3.3370 C.2     
  16 C16            8.1514    -4.3116    -3.6795 C.2     
  17 C17            6.7444    -4.2864    -3.4961 C.2     
  18 C18            6.2678    -5.4701    -3.9570 C.2     
  19 C19            7.3851    -6.2115    -4.4191 C.2     
  20 C20            7.3410    -7.5061    -4.9823 C.2     
  21 C21            8.5175    -8.1253    -5.3979 C.2     
  22 C22            9.8230    -7.5794    -5.3176 C.2     
  23 C23           10.6644    -8.5200    -5.8329 C.2     
  24 C24            9.8773    -9.6129    -6.2165 C.2     
  25 N25            8.6199    -9.3555    -5.9443 N.2     
  26 N26            8.4817    -5.4786    -4.2383 N.2     
  27 N27            7.3046    -1.8382    -2.4041 N.2     
  28 C28            0.6094    -4.7958    -0.2918 C.ar    
  29 N29            1.3572    -3.7122    -0.2438 N.ar    
  30 C30            0.8130    -2.5146    -0.0419 C.ar    
  31 C31           -0.5642    -2.4175     0.1192 C.ar    
  32 C32           -1.3192    -3.5865     0.0618 C.ar    
  33 N33           -0.6987    -4.7463    -0.1438 N.ar    
  34 C34            1.2689    -6.1299    -0.5289 C.3     
  35 N35           -2.6958    -3.5430     0.2169 N.pl3   
  36 C36            1.3206     2.0618     1.1586 C.3     
  37 C37            0.7701     1.8449     2.5696 C.3     
  38 C38            2.3661     3.1786     1.1852 C.3     
  39 C39            0.1779     2.4552     0.2203 C.3     
  40 H40            3.5148     0.5732    -0.3735 H       
  41 H41            3.1430    -3.5399    -1.0054 H       
  42 H42            5.5596    -2.8064    -1.8191 H       
  43 H43            5.9785     1.0782    -1.3140 H       
  44 H44            8.6792     1.0827    -1.8258 H       
  45 H45           10.3676    -0.6847    -2.8440 H       
  46 H46           10.1067    -3.4195    -3.4745 H       
  47 H47            6.1646    -3.4804    -3.0710 H       
  48 H48            5.2355    -5.7873    -3.9693 H       
  49 H49            6.3951    -8.0159    -5.0907 H       
  50 H50           10.0967    -6.6106    -4.9264 H       
  51 H51           11.7371    -8.4377    -5.9279 H       
  52 H52           10.2471   -10.5248    -6.6618 H       
  53 H53           -1.0366    -1.4605     0.2849 H       
  54 H54            1.5422    -6.5753     0.4277 H       
  55 H55            0.5767    -6.7895    -1.0522 H       
  56 H56            2.1649    -5.9899    -1.1336 H       
  57 H57           -3.1405    -2.6941     0.3667 H       
  58 H58           -3.2146    -4.3616     0.1756 H       
  59 H59            1.5943     1.6457     3.2545 H       
  60 H60            0.2370     2.7389     2.8930 H       
  61 H61            0.0869     0.9956     2.5664 H       
  62 H62            2.7583     3.3331     0.1800 H       
  63 H63            1.9047     4.0999     1.5408 H       
  64 H64            3.1802     2.8983     1.8537 H       
  65 H65           -0.5293     1.6294     0.1429 H       
  66 H66           -0.3313     3.3338     0.6163 H       
  67 H67            0.5803     2.6826    -0.7669 H       
@<TRIPOS>BOND
   1    1    2 am
   2    1    3 2
   3    1    4 1
   4    2    7 1
   5    2   30 1
   6    4   36 1
   7    5    6 1
   8    5    9 2
   9    5   10 1
  10    6    7 1
  11    6   40 1
  12    7    8 2
  13    8    9 1
  14    8   41 1
  15    9   42 1
  16   10   11 2
  17   10   43 1
  18   11   12 1
  19   11   27 1
  20   12   13 2
  21   12   44 1
  22   13   14 1
  23   13   45 1
  24   14   15 1
  25   14   27 2
  26   15   16 2
  27   15   46 1
  28   16   17 1
  29   16   26 1
  30   17   18 2
  31   17   47 1
  32   18   19 1
  33   18   48 1
  34   19   20 1
  35   19   26 2
  36   20   21 2
  37   20   49 1
  38   21   22 1
  39   21   25 1
  40   22   23 2
  41   22   50 1
  42   23   24 1
  43   23   51 1
  44   24   25 2
  45   24   52 1
  46   28   29 ar
  47   28   33 ar
  48   28   34 1
  49   29   30 ar
  50   30   31 ar
  51   31   32 ar
  52   31   53 1
  53   32   33 ar
  54   32   35 1
  55   34   54 1
  56   34   55 1
  57   34   56 1
  58   35   57 1
  59   35   58 1
  60   36   37 1
  61   36   39 1
  62   36   38 1
  63   37   59 1
  64   37   60 1
  65   37   61 1
  66   38   62 1
  67   38   63 1
  68   38   64 1
  69   39   65 1
  70   39   66 1
  71   39   67 1

#	End of record

