#	Name: ASD02198669
#	Creating user name:	WinNT
#	Creation time:	15. 06. 2019 20:19

#	Modifying user name:	WinNT
#	Modification time:	15. 06. 2019 20:19

#	Program:	/corina/corina34_cracker 3.40 0067  02.08.2006

@<TRIPOS>MOLECULE
ASD02198669
  58   62    0    0    0
SMALL
NO_CHARGES


@<TRIPOS>ATOM
   1 C1            -0.0436     1.5033    -0.1143 C.2     
   2 C2            -0.0737     0.1637     0.0983 C.2     
   3 N3             1.0706    -0.5384     0.2607 N.pl3   
   4 N4             2.2352    -0.0040     0.2264 N.2     
   5 C5             2.4072     1.2853     0.0280 C.2     
   6 C6             1.2215     2.1369    -0.1600 C.2     
   7 C7             0.9787    -1.9161     0.4772 C.ar    
   8 C8             1.5812    -2.4871     1.5982 C.ar    
   9 C9             1.4898    -3.8509     1.8118 C.ar    
  10 C10            0.7958    -4.6508     0.9059 C.ar    
  11 C11            0.1951    -4.0752    -0.2134 C.ar    
  12 C12            0.2825    -2.7152    -0.4214 C.ar    
  13 C13            3.7643     1.8671    -0.0049 C.2     
  14 N14            4.3063     2.6068    -1.0182 N.pl3   
  15 N15            5.6083     2.9583    -0.6405 N.2     
  16 C16            5.8521     2.4590     0.5450 C.2     
  17 C17            4.7202     1.7713     0.9826 C.2     
  18 C18            3.6733     2.9513    -2.2192 C.ar    
  19 C19            2.9110     2.0097    -2.8983 C.ar    
  20 C20            2.2862     2.3497    -4.0828 C.ar    
  21 C21            2.4179     3.6262    -4.5948 C.ar    
  22 C22            3.1786     4.5713    -3.9203 C.ar    
  23 C23            3.8025     4.2356    -2.7292 C.ar    
  24 O24            1.3249     3.3400    -0.3477 O.2     
  25 C25            0.6964    -6.1130     1.1318 C.ar    
  26 N26            1.2706    -6.6547     2.1986 N.ar    
  27 C27           -0.0039    -6.9062     0.2252 C.ar    
  28 C28           -0.0883    -8.2695     0.4497 C.ar    
  29 C29            0.5310    -8.7953     1.5745 C.ar    
  30 C30            1.2052    -7.9489     2.4356 C.ar    
  31 C31            7.1409     2.6067     1.3119 C.3     
  32 O32            2.2578    -1.7045     2.4797 O.3     
  33 C33            2.8496    -2.3568     3.6050 C.3     
  34 O34            3.3076     5.8265    -4.4253 O.3     
  35 C35            2.6331     6.1038    -5.6542 C.3     
  36 F36            1.2584     5.9055    -5.4867 F       
  37 F37            2.8707     7.4311    -6.0273 F       
  38 F38            3.1099     5.2465    -6.6516 F       
  39 H39           -0.9548     2.0672    -0.2488 H       
  40 H40           -1.0237    -0.3484     0.1388 H       
  41 H41            1.9559    -4.2950     2.6790 H       
  42 H42           -0.3426    -4.6949    -0.9158 H       
  43 H43           -0.1836    -2.2714    -1.2886 H       
  44 H44            4.6145     1.2517     1.9235 H       
  45 H45            2.8068     1.0111    -2.5004 H       
  46 H46            1.6941     1.6161    -4.6097 H       
  47 H47            1.9287     3.8890    -5.5211 H       
  48 H48            4.3944     4.9698    -2.2029 H       
  49 H49           -0.4745    -6.4635    -0.6402 H       
  50 H50           -0.6246    -8.9096    -0.2353 H       
  51 H51            0.4835    -9.8549     1.7778 H       
  52 H52            1.6883    -8.3550     3.3120 H       
  53 H53            7.0938     3.5015     1.9326 H       
  54 H54            7.2889     1.7323     1.9455 H       
  55 H55            7.9721     2.6934     0.6122 H       
  56 H56            3.3574    -1.6194     4.2267 H       
  57 H57            2.0727    -2.8509     4.1885 H       
  58 H58            3.5700    -3.0975     3.2581 H       
@<TRIPOS>BOND
   1    1    2 2
   2    1    6 1
   3    1   39 1
   4    2    3 1
   5    2   40 1
   6    3    4 1
   7    3    7 1
   8    4    5 2
   9    5    6 1
  10    5   13 1
  11    6   24 2
  12    7    8 ar
  13    7   12 ar
  14    8    9 ar
  15    8   32 1
  16    9   10 ar
  17    9   41 1
  18   10   11 ar
  19   10   25 1
  20   11   12 ar
  21   11   42 1
  22   12   43 1
  23   13   14 1
  24   13   17 2
  25   14   15 1
  26   14   18 1
  27   15   16 2
  28   16   17 1
  29   16   31 1
  30   17   44 1
  31   18   19 ar
  32   18   23 ar
  33   19   20 ar
  34   19   45 1
  35   20   21 ar
  36   20   46 1
  37   21   22 ar
  38   21   47 1
  39   22   23 ar
  40   22   34 1
  41   23   48 1
  42   25   26 ar
  43   25   27 ar
  44   26   30 ar
  45   27   28 ar
  46   27   49 1
  47   28   29 ar
  48   28   50 1
  49   29   30 ar
  50   29   51 1
  51   30   52 1
  52   31   53 1
  53   31   54 1
  54   31   55 1
  55   32   33 1
  56   33   56 1
  57   33   57 1
  58   33   58 1
  59   34   35 1
  60   35   36 1
  61   35   37 1
  62   35   38 1

#	End of record

