#	Name: ASD00960218
#	Creating user name:	WinNT
#	Creation time:	15. 06. 2019 18:53

#	Modifying user name:	WinNT
#	Modification time:	15. 06. 2019 18:53

#	Program:	/corina/corina34_cracker 3.40 0067  02.08.2006

@<TRIPOS>MOLECULE
ASD00960218
  37   39    0    0    0
SMALL
NO_CHARGES


@<TRIPOS>ATOM
   1 C1             0.2925     1.4709    -0.1690 C.2     
   2 C2             0.3943     0.0829    -0.2392 C.2     
   3 N3             1.5527     1.9912    -0.0907 N.pl3   
   4 C4             2.4559     0.9532    -0.1101 C.2     
   5 C5             1.7430    -0.2412    -0.2026 C.2     
   6 N6             2.0425     3.3017    -0.0010 N.2     
   7 C7             3.3299     3.5154     0.0620 C.2     
   8 N8             4.2138     2.5215     0.0442 N.2     
   9 C9             3.8334     1.2571    -0.0387 C.2     
  10 N10            4.7728     0.2454    -0.0548 N.pl3   
  11 N11            2.2887    -1.5333    -0.2490 N.pl3   
  12 C12            1.4067    -2.7026    -0.2174 C.3     
  13 C13           -0.9138     2.2164    -0.1827 C.2     
  14 O14           -1.9834     1.6416    -0.2609 O.2     
  15 O15           -0.8755     3.5635    -0.1090 O.3     
  16 C16           -2.1285     4.2502    -0.1279 C.3     
  17 C17           -1.8889     5.7353    -0.0378 C.ar    
  18 C18           -1.7260     6.4803    -1.1908 C.ar    
  19 C19           -1.5062     7.8425    -1.1082 C.ar    
  20 C20           -1.4497     8.4599     0.1274 C.ar    
  21 C21           -1.6135     7.7150     1.2803 C.ar    
  22 C22           -1.8377     6.3534     1.1976 C.ar    
  23 H23           -0.4276    -0.6143    -0.3091 H       
  24 H24            3.6880     4.5320     0.1303 H       
  25 H25            5.7161     0.4606    -0.1230 H       
  26 H26            4.4894    -0.6805     0.0022 H       
  27 H27            3.2500    -1.6521    -0.3019 H       
  28 H28            0.8261    -2.6949     0.7051 H       
  29 H29            0.7311    -2.6712    -1.0722 H       
  30 H30            2.0067    -3.6115    -0.2616 H       
  31 H31           -2.6537     4.0225    -1.0555 H       
  32 H32           -2.7325     3.9275     0.7202 H       
  33 H33           -1.7701     5.9980    -2.1561 H       
  34 H34           -1.3782     8.4245    -2.0089 H       
  35 H35           -1.2772     9.5240     0.1920 H       
  36 H36           -1.5691     8.1972     2.2457 H       
  37 H37           -1.9694     5.7721     2.0982 H       
@<TRIPOS>BOND
   1    1    2 2
   2    1    3 1
   3    1   13 1
   4    2    5 1
   5    2   23 1
   6    3    4 1
   7    3    6 1
   8    4    5 2
   9    4    9 1
  10    5   11 1
  11    6    7 2
  12    7    8 1
  13    7   24 1
  14    8    9 2
  15    9   10 1
  16   10   25 1
  17   10   26 1
  18   11   12 1
  19   11   27 1
  20   12   28 1
  21   12   29 1
  22   12   30 1
  23   13   14 2
  24   13   15 1
  25   15   16 1
  26   16   17 1
  27   16   31 1
  28   16   32 1
  29   17   18 ar
  30   17   22 ar
  31   18   19 ar
  32   18   33 1
  33   19   20 ar
  34   19   34 1
  35   20   21 ar
  36   20   35 1
  37   21   22 ar
  38   21   36 1
  39   22   37 1

#	End of record

