#	Name: ASD01180126
#	Creating user name:	WinNT
#	Creation time:	15. 06. 2019 19:06

#	Modifying user name:	WinNT
#	Modification time:	15. 06. 2019 19:06

#	Program:	/corina/corina34_cracker 3.40 0067  02.08.2006

@<TRIPOS>MOLECULE
ASD01180126
  66   70    0    0    0
SMALL
NO_CHARGES


@<TRIPOS>ATOM
   1 C1             0.4979     1.3579     0.8913 C.ar    
   2 C2             0.4567    -0.0255     0.7913 C.ar    
   3 C3             1.6054    -0.7410     0.6020 C.ar    
   4 C4             2.8304    -0.0785     0.5075 C.ar    
   5 C5             2.8784     1.3241     0.6076 C.ar    
   6 C6             1.6953     2.0326     0.8010 C.ar    
   7 C7             4.2118    -0.5251     0.3110 C.2     
   8 C8             5.0072     0.6168     0.3033 C.2     
   9 N9             4.1927     1.7193     0.4825 N.pl3   
  10 C10            4.8517    -1.8341     0.1369 C.2     
  11 C11            6.2084    -1.8837    -0.0268 C.2     
  12 N12            6.9483    -0.7499    -0.0281 N.am    
  13 C13            6.4013     0.4674     0.1281 C.2     
  14 C14            4.6592     3.1072     0.5321 C.3     
  15 O15            7.1165     1.4550     0.1182 O.2     
  16 C16            8.3987    -0.8541    -0.2065 C.3     
  17 C17            9.0088    -1.7042     0.9217 C.3     
  18 C18            9.6772    -2.9192     0.2458 C.3     
  19 C19            9.9644    -2.4398    -1.1988 C.3     
  20 C20            8.7176    -1.5822    -1.5286 C.3     
  21 C21            4.0496    -3.0687     0.1390 C.2     
  22 N22            4.6301    -4.2501    -0.1507 N.am    
  23 O23            2.8629    -3.0226     0.4020 O.2     
  24 C24            3.8592    -5.4911    -0.0427 C.3     
  25 C25            3.0601    -5.7087    -1.3292 C.3     
  26 C26            2.2755    -7.0363    -1.2576 C.3     
  27 C27            2.3399    -7.6174    -2.6851 C.3     
  28 C28            3.1580    -6.5920    -3.4991 C.3     
  29 N29            3.9767    -5.8775    -2.4861 N.3     
  30 C30            4.4262    -4.5752    -2.9960 C.3     
  31 C31            5.3862    -4.7901    -4.1678 C.3     
  32 C32            3.2161    -3.7676    -3.4695 C.3     
  33 H33           -0.4182     1.9112     1.0368 H       
  34 H34           -0.4898    -0.5404     0.8640 H       
  35 H35            1.5655    -1.8175     0.5258 H       
  36 H36            1.7166     3.1095     0.8801 H       
  37 H37            6.6956    -2.8389    -0.1562 H       
  38 H38            4.6549     3.5281    -0.4734 H       
  39 H39            3.9977     3.6902     1.1728 H       
  40 H40            5.6722     3.1359     0.9336 H       
  41 H41            8.8466     0.1397    -0.2092 H       
  42 H42            9.7535    -1.1233     1.4660 H       
  43 H43            8.2258    -2.0392     1.6019 H       
  44 H44           10.6065    -3.1754     0.7546 H       
  45 H45            8.9984    -3.7720     0.2368 H       
  46 H46           10.8699    -1.8338    -1.2318 H       
  47 H47           10.0409    -3.2879    -1.8792 H       
  48 H48            7.8838    -2.2190    -1.8241 H       
  49 H49            8.9466    -0.8626    -2.3147 H       
  50 H50            5.5584    -4.2785    -0.4306 H       
  51 H51            4.5393    -6.3293     0.1087 H       
  52 H52            3.1747    -5.4213     0.8027 H       
  53 H53            2.3802    -4.8739    -1.4992 H       
  54 H54            2.7478    -7.7175    -0.5499 H       
  55 H55            1.2405    -6.8494    -0.9713 H       
  56 H56            2.8438    -8.5839    -2.6781 H       
  57 H57            1.3365    -7.7157    -3.0995 H       
  58 H58            3.8010    -7.1021    -4.2164 H       
  59 H59            2.4936    -5.8958    -4.0108 H       
  60 H60            4.9381    -4.0312    -2.2021 H       
  61 H61            4.8743    -5.3341    -4.9617 H       
  62 H62            5.7197    -3.8238    -4.5462 H       
  63 H63            6.2483    -5.3655    -3.8305 H       
  64 H64            2.5025    -3.6689    -2.6515 H       
  65 H65            3.5423    -2.7776    -3.7884 H       
  66 H66            2.7415    -4.2807    -4.3058 H       
@<TRIPOS>BOND
   1    1    2 ar
   2    1    6 ar
   3    1   33 1
   4    2    3 ar
   5    2   34 1
   6    3    4 ar
   7    3   35 1
   8    4    5 ar
   9    4    7 1
  10    5    6 ar
  11    5    9 1
  12    6   36 1
  13    7    8 2
  14    7   10 1
  15    8    9 1
  16    8   13 1
  17    9   14 1
  18   10   11 2
  19   10   21 1
  20   11   12 1
  21   11   37 1
  22   12   13 am
  23   12   16 1
  24   13   15 2
  25   14   38 1
  26   14   39 1
  27   14   40 1
  28   16   17 1
  29   16   20 1
  30   16   41 1
  31   17   18 1
  32   17   42 1
  33   17   43 1
  34   18   19 1
  35   18   44 1
  36   18   45 1
  37   19   20 1
  38   19   46 1
  39   19   47 1
  40   20   48 1
  41   20   49 1
  42   21   22 am
  43   21   23 2
  44   22   24 1
  45   22   50 1
  46   24   25 1
  47   24   51 1
  48   24   52 1
  49   25   26 1
  50   25   29 1
  51   25   53 1
  52   26   27 1
  53   26   54 1
  54   26   55 1
  55   27   28 1
  56   27   56 1
  57   27   57 1
  58   28   29 1
  59   28   58 1
  60   28   59 1
  61   29   30 1
  62   30   31 1
  63   30   32 1
  64   30   60 1
  65   31   61 1
  66   31   62 1
  67   31   63 1
  68   32   64 1
  69   32   65 1
  70   32   66 1

#	End of record

