#	Name: ASD03331474
#	Creating user name:	WinNT
#	Creation time:	15. 06. 2019 20:39

#	Modifying user name:	WinNT
#	Modification time:	15. 06. 2019 20:39

#	Program:	/corina/corina34_cracker 3.40 0067  02.08.2006

@<TRIPOS>MOLECULE
ASD03331474
  64   67    0    0    0
SMALL
NO_CHARGES


@<TRIPOS>ATOM
   1 C1             0.0880     1.1958     0.9500 C.ar    
   2 C2             0.1028    -0.2676     0.7342 C.2     
   3 N3            -0.8995    -1.1270     1.0548 N.pl3   
   4 C4            -0.4939    -2.3806     0.6994 C.2     
   5 C5             0.7469    -2.2637     0.1653 C.2     
   6 N6             1.0854    -0.9541     0.1949 N.2     
   7 C7             1.5750    -3.3642    -0.3588 C.2     
   8 N8             2.7973    -3.1058    -0.8646 N.am    
   9 C9            -0.8384     1.7649     1.8242 C.ar    
  10 O10            1.1556    -4.5055    -0.3349 O.2     
  11 C11            3.6206    -4.1999    -1.3856 C.3     
  12 C12            3.2382    -4.4776    -2.8408 C.3     
  13 C13            5.0751    -3.8122    -1.3136 C.2     
  14 C14            3.3732    -3.1911    -3.6579 C.3     
  15 C15           -2.2009    -0.8420     1.6654 C.3     
  16 C16           -3.1119    -2.0554     1.4386 C.3     
  17 N17           -2.4149    -3.2845     1.8428 N.3     
  18 C18           -1.3311    -3.6172     0.9007 C.3     
  19 C19            4.1676    -5.5477    -3.4170 C.3     
  20 O20            5.4026    -2.6548    -1.4690 O.2     
  21 N21            6.0120    -4.7516    -1.0766 N.am    
  22 C22           -0.8477     3.1319     2.0219 C.ar    
  23 C23            0.0622     3.9376     1.3519 C.ar    
  24 C24            0.9831     3.3755     0.4828 C.ar    
  25 C25            1.0044     2.0107     0.2841 C.ar    
  26 F26            0.0497     5.2743     1.5476 F       
  27 F27           -1.7439     3.6853     2.8680 F       
  28 C28            7.4654    -4.7649    -0.8527 C.3     
  29 C29            7.4849    -6.1920    -1.4176 C.3     
  30 C30            6.0297    -6.2140    -0.9215 C.3     
  31 C31           -3.3568    -4.4036     1.9783 C.3     
  32 C32           -4.3865    -1.8968     2.2699 C.3     
  33 C33            1.7915    -4.9716    -2.9026 C.3     
  34 H34            3.1318    -2.1956    -0.8836 H       
  35 H35           -1.5470     1.1379     2.3450 H       
  36 H36            3.4536    -5.0964    -0.7886 H       
  37 H37            4.4039    -2.8392    -3.6139 H       
  38 H38            3.1008    -3.3890    -4.6947 H       
  39 H39            2.7111    -2.4288    -3.2474 H       
  40 H40           -2.0759    -0.6706     2.7346 H       
  41 H41           -2.6404     0.0401     1.1998 H       
  42 H42           -3.3749    -2.1187     0.3827 H       
  43 H43           -1.7554    -3.9340    -0.0521 H       
  44 H44           -0.7155    -4.4159     1.3144 H       
  45 H45            4.0024    -6.4909    -2.8964 H       
  46 H46            3.9582    -5.6772    -4.4788 H       
  47 H47            5.2042    -5.2372    -3.2863 H       
  48 H48            1.6887     4.0068    -0.0367 H       
  49 H49            1.7230     1.5743    -0.3938 H       
  50 H50            8.0061    -4.0466    -1.4690 H       
  51 H51            7.7430    -4.7109     0.2000 H       
  52 H52            7.5919    -6.2423    -2.5012 H       
  53 H53            8.1469    -6.8746    -0.8848 H       
  54 H54            5.9284    -6.5456     0.1119 H       
  55 H55            5.3480    -6.7286    -1.5987 H       
  56 H56           -3.8511    -4.5802     1.0230 H       
  57 H57           -2.8148    -5.3004     2.2782 H       
  58 H58           -4.1036    -4.1605     2.7343 H       
  59 H59           -4.9076    -0.9888     1.9664 H       
  60 H60           -5.0345    -2.7585     2.1095 H       
  61 H61           -4.1255    -1.8302     3.3261 H       
  62 H62            1.1294    -4.2092    -2.4920 H       
  63 H63            1.5191    -5.1694    -3.9393 H       
  64 H64            1.6953    -5.8881    -2.3204 H       
@<TRIPOS>BOND
   1    1    2 1
   2    1    9 ar
   3    1   25 ar
   4    2    3 1
   5    2    6 2
   6    3    4 1
   7    3   15 1
   8    4    5 2
   9    4   18 1
  10    5    6 1
  11    5    7 1
  12    7    8 am
  13    7   10 2
  14    8   11 1
  15    8   34 1
  16    9   22 ar
  17    9   35 1
  18   11   12 1
  19   11   13 1
  20   11   36 1
  21   12   14 1
  22   12   19 1
  23   12   33 1
  24   13   20 2
  25   13   21 am
  26   14   37 1
  27   14   38 1
  28   14   39 1
  29   15   16 1
  30   15   40 1
  31   15   41 1
  32   16   17 1
  33   16   32 1
  34   16   42 1
  35   17   18 1
  36   17   31 1
  37   18   43 1
  38   18   44 1
  39   19   45 1
  40   19   46 1
  41   19   47 1
  42   21   28 1
  43   21   30 1
  44   22   23 ar
  45   22   27 1
  46   23   24 ar
  47   23   26 1
  48   24   25 ar
  49   24   48 1
  50   25   49 1
  51   28   29 1
  52   28   50 1
  53   28   51 1
  54   29   30 1
  55   29   52 1
  56   29   53 1
  57   30   54 1
  58   30   55 1
  59   31   56 1
  60   31   57 1
  61   31   58 1
  62   32   59 1
  63   32   60 1
  64   32   61 1
  65   33   62 1
  66   33   63 1
  67   33   64 1

#	End of record

