#	Name: ASD01912161
#	Creating user name:	WinNT
#	Creation time:	15. 06. 2019 19:59

#	Modifying user name:	WinNT
#	Modification time:	15. 06. 2019 19:59

#	Program:	/corina/corina34_cracker 3.40 0067  02.08.2006

@<TRIPOS>MOLECULE
ASD01912161
  43   45    0    0    0
SMALL
NO_CHARGES


@<TRIPOS>ATOM
   1 C1            -0.0169     1.3931     0.0097 C.ar    
   2 C2             0.0021    -0.0041     0.0020 C.ar    
   3 C3            -1.2261    -0.7403     0.0093 C.1     
   4 C4            -2.2331    -1.3439     0.0153 C.1     
   5 C5            -3.4613    -2.0802     0.0226 C.ar    
   6 C6            -3.4601    -3.4815     0.0151 C.ar    
   7 N7            -4.6147    -4.1224     0.0227 N.ar    
   8 C8            -5.7614    -3.4591     0.0372 C.ar    
   9 N9            -5.8059    -2.1351     0.0443 N.ar    
  10 C10           -4.6965    -1.4187     0.0434 C.ar    
  11 N11           -6.9523    -4.1730     0.0447 N.am    
  12 C12            1.2270    -0.6802    -0.0133 C.ar    
  13 C13            2.4080     0.0370    -0.0207 C.ar    
  14 C14            2.3814     1.4197    -0.0131 C.ar    
  15 C15            1.1717     2.0964     0.0021 C.ar    
  16 C16           -8.2855    -3.5595     0.0608 C.3     
  17 C17           -7.0324    -5.5147     0.0325 C.2     
  18 C18           -8.4813    -5.9496     0.0359 C.3     
  19 C19           -9.2592    -4.6782    -0.3716 C.3     
  20 O20           -6.0814    -6.2672     0.0199 O.2     
  21 O21           -8.8708    -6.3815     1.3412 O.3     
  22 C22           -8.6949    -7.7816     1.5666 C.3     
  23 C23          -10.5815    -4.5771     0.3914 C.3     
  24 C24           -9.4972    -4.6426    -1.8826 C.3     
  25 F25            1.1553     3.4473     0.0091 F       
  26 F26            1.2549    -2.0309    -0.0204 F       
  27 H27           -0.9586     1.9217     0.0170 H       
  28 H28           -2.5292    -4.0290     0.0029 H       
  29 H29           -4.7406    -0.3397     0.0492 H       
  30 H30            3.3542    -0.4835    -0.0322 H       
  31 H31            3.3077     1.9750    -0.0189 H       
  32 H32           -8.5298    -3.2143     1.0654 H       
  33 H33           -8.3273    -2.7296    -0.6446 H       
  34 H34           -8.6432    -6.7431    -0.6937 H       
  35 H35           -9.0132    -8.0293     2.5793 H       
  36 H36           -9.2941    -8.3432     0.8499 H       
  37 H37           -7.6434    -8.0403     1.4427 H       
  38 H38          -10.3810    -4.5364     1.4620 H       
  39 H39          -11.1091    -3.6736     0.0860 H       
  40 H40          -11.1964    -5.4494     0.1698 H       
  41 H41          -10.0760    -5.5171    -2.1799 H       
  42 H42          -10.0465    -3.7378    -2.1427 H       
  43 H43           -8.5388    -4.6477    -2.4016 H       
@<TRIPOS>BOND
   1    1    2 ar
   2    1   15 ar
   3    1   27 1
   4    2    3 1
   5    2   12 ar
   6    3    4 3
   7    4    5 1
   8    5    6 ar
   9    5   10 ar
  10    6    7 ar
  11    6   28 1
  12    7    8 ar
  13    8    9 ar
  14    8   11 1
  15    9   10 ar
  16   10   29 1
  17   11   16 1
  18   11   17 am
  19   12   13 ar
  20   12   26 1
  21   13   14 ar
  22   13   30 1
  23   14   15 ar
  24   14   31 1
  25   15   25 1
  26   16   19 1
  27   16   32 1
  28   16   33 1
  29   17   18 1
  30   17   20 2
  31   18   19 1
  32   18   21 1
  33   18   34 1
  34   19   23 1
  35   19   24 1
  36   21   22 1
  37   22   35 1
  38   22   36 1
  39   22   37 1
  40   23   38 1
  41   23   39 1
  42   23   40 1
  43   24   41 1
  44   24   42 1
  45   24   43 1

#	End of record

