#	Name: ASD01915369
#	Creating user name:	WinNT
#	Creation time:	15. 06. 2019 20:05

#	Modifying user name:	WinNT
#	Modification time:	15. 06. 2019 20:05

#	Program:	/corina/corina34_cracker 3.40 0067  02.08.2006

@<TRIPOS>MOLECULE
ASD01915369
  43   46    0    0    0
SMALL
NO_CHARGES


@<TRIPOS>ATOM
   1 C1            -0.0168     1.3887     0.0097 C.ar    
   2 C2             0.0021    -0.0041     0.0020 C.ar    
   3 N3             1.1537    -0.6628    -0.0125 N.ar    
   4 C4             2.3101    -0.0318    -0.0202 C.ar    
   5 C5             2.3650     1.3500    -0.0128 C.ar    
   6 C6             1.1839     2.0778     0.0019 C.ar    
   7 C7             3.6951     2.0585    -0.0207 C.3     
   8 N8             4.6524     1.3343     0.8282 N.am    
   9 C9             5.7779     0.8809    -0.0091 C.3     
  10 C10            5.7899     1.8511    -1.2167 C.3     
  11 C11            4.2726     2.0747    -1.4517 C.3     
  12 C12            4.5229     1.1211     2.1527 C.2     
  13 O13            3.5488     1.5434     2.7437 O.2     
  14 C14            5.5682     0.3718     2.8880 C.ar    
  15 C15           -1.2760    -0.7571     0.0107 C.ar    
  16 C16           -1.2666    -2.1503     0.0031 C.ar    
  17 C17           -2.4600    -2.8463     0.0117 C.ar    
  18 C18           -3.6628    -2.1616     0.0278 C.ar    
  19 C19           -3.6768    -0.7784     0.0349 C.ar    
  20 C20           -2.4904    -0.0735     0.0322 C.ar    
  21 Cl21          -2.4509    -4.5823     0.0017 Cl      
  22 C22            5.4363     0.1500     4.2579 C.ar    
  23 N23            6.3709    -0.5191     4.9092 N.ar    
  24 C24            7.4285    -0.9773     4.2637 C.ar    
  25 C25            7.5630    -0.7578     2.9000 C.ar    
  26 N26            6.6328    -0.0962     2.2418 N.ar    
  27 H27           -0.9550     1.9236     0.0170 H       
  28 H28            3.2276    -0.6014    -0.0320 H       
  29 H29            1.2008     3.1576     0.0079 H       
  30 H30            3.5738     3.0784     0.3441 H       
  31 H31            6.7146     0.9516     0.5437 H       
  32 H32            5.6117    -0.1423    -0.3462 H       
  33 H33            6.2877     2.7866    -0.9613 H       
  34 H34            6.2557     1.3872    -2.0860 H       
  35 H35            3.8511     1.2647    -2.0469 H       
  36 H36            4.0942     3.0384    -1.9287 H       
  37 H37           -0.3283    -2.6850    -0.0098 H       
  38 H38           -4.5936    -2.7091     0.0345 H       
  39 H39           -4.6181    -0.2491     0.0468 H       
  40 H40           -2.5031     1.0065     0.0378 H       
  41 H41            4.5719     0.5249     4.7858 H       
  42 H42            8.1908    -1.5239     4.7989 H       
  43 H43            8.4295    -1.1339     2.3764 H       
@<TRIPOS>BOND
   1    1    2 ar
   2    1    6 ar
   3    1   27 1
   4    2    3 ar
   5    2   15 1
   6    3    4 ar
   7    4    5 ar
   8    4   28 1
   9    5    6 ar
  10    5    7 1
  11    6   29 1
  12    7    8 1
  13    7   11 1
  14    7   30 1
  15    8    9 1
  16    8   12 am
  17    9   10 1
  18    9   31 1
  19    9   32 1
  20   10   11 1
  21   10   33 1
  22   10   34 1
  23   11   35 1
  24   11   36 1
  25   12   13 2
  26   12   14 1
  27   14   22 ar
  28   14   26 ar
  29   15   16 ar
  30   15   20 ar
  31   16   17 ar
  32   16   37 1
  33   17   18 ar
  34   17   21 1
  35   18   19 ar
  36   18   38 1
  37   19   20 ar
  38   19   39 1
  39   20   40 1
  40   22   23 ar
  41   22   41 1
  42   23   24 ar
  43   24   25 ar
  44   24   42 1
  45   25   26 ar
  46   25   43 1

#	End of record

