#	Name: ASD05872017
#	Creating user name:	WinNT
#	Creation time:	15. 06. 2019 21:04

#	Modifying user name:	WinNT
#	Modification time:	15. 06. 2019 21:04

#	Program:	/corina/corina34_cracker 3.40 0067  02.08.2006

@<TRIPOS>MOLECULE
ASD05872017
  47   49    0    0    0
SMALL
NO_CHARGES


@<TRIPOS>ATOM
   1 C1            -0.0153     1.3883     0.0102 C.ar    
   2 C2             0.0049    -0.0019     0.1259 C.ar    
   3 C3            -1.1802    -0.7127     0.1342 C.ar    
   4 C4            -2.3904    -0.0345     0.0271 C.ar    
   5 C5            -2.4134     1.3627    -0.0888 C.ar    
   6 C6            -1.2155     2.0665    -0.0906 C.ar    
   7 C7            -3.8064    -0.4549     0.0018 C.2     
   8 C8            -4.5293     0.6919    -0.1232 C.2     
   9 O9            -3.7054     1.7447    -0.1749 O.3     
  10 C10           -6.0329     0.7647    -0.1928 C.3     
  11 O11            1.1547     2.0819     0.0022 O.3     
  12 C12            1.7729     2.2243    -1.1855 C.2     
  13 O13            1.3297     1.6693    -2.1715 O.2     
  14 N14            2.8833     2.9823    -1.2807 N.am    
  15 C15            3.5761     3.1526    -2.5677 C.3     
  16 C16            3.7966     4.6512    -2.8035 C.3     
  17 O17            4.4366     5.2187    -1.6579 O.3     
  18 C18            3.6655     5.1380    -0.4568 C.3     
  19 C19            3.4350     3.6690    -0.1020 C.3     
  20 O20            1.1918    -0.6582     0.2301 O.3     
  21 S21            1.6736    -0.8425     1.6620 S.o2    
  22 O22            3.0772    -1.2169     1.5873 O.co2   
  23 O23            1.4838     0.4326     2.3358 O.co2   
  24 O24            0.8580    -1.8956     2.2467 O.co2   
  25 C25           -4.3264    -1.8259     0.0918 C.2     
  26 O26           -4.5858    -2.3076     1.1775 O.2     
  27 O27           -4.5161    -2.5499    -1.0296 O.3     
  28 C28           -5.1802    -4.5577    -2.2371 C.3     
  29 C29           -5.0325    -3.8970    -0.8650 C.3     
  30 H30           -1.1671    -1.7890     0.2229 H       
  31 H31           -1.2216     3.1428    -0.1794 H       
  32 H32           -6.4388     0.8664     0.8137 H       
  33 H33           -6.3276     1.6261    -0.7922 H       
  34 H34           -6.4199    -0.1458    -0.6503 H       
  35 H35            4.5377     2.6403    -2.5377 H       
  36 H36            2.9650     2.7407    -3.3709 H       
  37 H37            4.4280     4.7927    -3.6807 H       
  38 H38            2.8355     5.1400    -2.9630 H       
  39 H39            4.2026     5.6298     0.3543 H       
  40 H40            2.7040     5.6286    -0.6078 H       
  41 H41            2.7307     3.5988     0.7269 H       
  42 H42            4.3822     3.2095     0.1805 H       
  43 H43           -5.5679    -5.5689    -2.1136 H       
  44 H44           -5.8704    -3.9760    -2.8481 H       
  45 H45           -4.2074    -4.5989    -2.7271 H       
  46 H46           -4.3423    -4.4786    -0.2540 H       
  47 H47           -6.0053    -3.8558    -0.3750 H       
@<TRIPOS>BOND
   1    1    2 ar
   2    1   11 1
   3    1    6 ar
   4    2    3 ar
   5    2   20 1
   6    3    4 ar
   7    3   30 1
   8    4    5 ar
   9    4    7 1
  10    5    6 ar
  11    5    9 1
  12    6   31 1
  13    7    8 2
  14    7   25 1
  15    8    9 1
  16    8   10 1
  17   10   32 1
  18   10   33 1
  19   10   34 1
  20   11   12 1
  21   12   13 2
  22   12   14 am
  23   14   15 1
  24   14   19 1
  25   15   16 1
  26   15   35 1
  27   15   36 1
  28   16   17 1
  29   16   37 1
  30   16   38 1
  31   17   18 1
  32   18   19 1
  33   18   39 1
  34   18   40 1
  35   19   41 1
  36   19   42 1
  37   20   21 1
  38   21   22 ar
  39   21   23 ar
  40   21   24 ar
  41   25   26 2
  42   25   27 1
  43   27   29 1
  44   28   29 1
  45   28   43 1
  46   28   44 1
  47   28   45 1
  48   29   46 1
  49   29   47 1

#	End of record

