#	Name: ASD01884395
#	Creating user name:	WinNT
#	Creation time:	15. 06. 2019 19:48

#	Modifying user name:	WinNT
#	Modification time:	15. 06. 2019 19:48

#	Program:	/corina/corina34_cracker 3.40 0067  02.08.2006

@<TRIPOS>MOLECULE
ASD01884395
  50   55    0    0    0
SMALL
NO_CHARGES


@<TRIPOS>ATOM
   1 C1            -1.5807     1.4034     1.1050 C.2     
   2 C2            -1.5975    -0.0023     1.1214 C.2     
   3 C3            -1.1844    -0.6871     0.0102 C.2     
   4 C4            -0.7508     0.0275    -1.1273 C.2     
   5 C5            -0.7430     1.3750    -1.1210 C.2     
   6 N6            -1.1584     2.0674    -0.0209 N.pl3   
   7 C7            -1.2573     3.3958     0.2717 C.2     
   8 N8            -1.7097     3.4963     1.4939 N.2     
   9 N9            -1.9091     2.3280     1.9946 N.2     
  10 N10           -1.1914    -2.0799     0.0024 N.pl3   
  11 C11           -0.9078     4.5389    -0.6460 C.3     
  12 Cl12          -2.1345    -0.8587     2.5327 Cl      
  13 C13           -2.1417     4.9358    -1.4589 C.3     
  14 C14           -2.4538    -2.8221     0.1213 C.3     
  15 C15           -2.5623    -3.8010    -1.0528 C.3     
  16 C16           -1.3109    -4.6757    -1.0990 C.3     
  17 C17           -0.0662    -3.8128    -1.2964 C.3     
  18 C18            0.0629    -2.8334    -0.1310 C.3     
  19 C19           -2.0242     6.1599    -2.3693 C.3     
  20 C20           -2.0752     4.7567    -2.9769 C.3     
  21 O21           -1.1959    -5.4286     0.1187 O.3     
  22 C22           -1.8900    -6.6632    -0.1432 C.3     
  23 C23           -1.7774    -6.8942    -1.6307 C.ar    
  24 C24           -1.4249    -5.6866    -2.2143 C.ar    
  25 C25           -1.9534    -8.0097    -2.4264 C.ar    
  26 C26           -1.7673    -7.8772    -3.7955 C.ar    
  27 C27           -1.4158    -6.6434    -4.3092 C.ar    
  28 N28           -1.2568    -5.6000    -3.5180 N.ar    
  29 H29           -0.4236    -0.5080    -2.0062 H       
  30 H30           -0.4094     1.9120    -1.9966 H       
  31 H31           -0.5733     5.3909    -0.0540 H       
  32 H32           -0.1106     4.2311    -1.3225 H       
  33 H33           -3.1014     4.7605    -0.9727 H       
  34 H34           -2.4655    -3.3752     1.0605 H       
  35 H35           -3.2914    -2.1252     0.0946 H       
  36 H36           -3.4419    -4.4311    -0.9210 H       
  37 H37           -2.6506    -3.2428    -1.9849 H       
  38 H38            0.8164    -4.4512    -1.3362 H       
  39 H39           -0.1544    -3.2550    -2.2287 H       
  40 H40            0.8846    -2.1439    -0.3245 H       
  41 H41            0.2562    -3.3869     0.7879 H       
  42 H42           -2.9067     6.7897    -2.4822 H       
  43 H43           -1.0678     6.6825    -2.3890 H       
  44 H44           -1.1524     4.3561    -3.3965 H       
  45 H45           -2.9912     4.4633    -3.4897 H       
  46 H46           -1.4189    -7.4817     0.4009 H       
  47 H47           -2.9374    -6.5736     0.1448 H       
  48 H48           -2.2283    -8.9605    -1.9943 H       
  49 H49           -1.8952    -8.7266    -4.4502 H       
  50 H50           -1.2690    -6.5320    -5.3733 H       
@<TRIPOS>BOND
   1    1    2 1
   2    1    9 2
   3    1    6 1
   4    2    3 2
   5    2   12 1
   6    3    4 1
   7    3   10 1
   8    4    5 2
   9    4   29 1
  10    5    6 1
  11    5   30 1
  12    6    7 1
  13    7    8 2
  14    7   11 1
  15    8    9 1
  16   10   14 1
  17   10   18 1
  18   11   13 1
  19   11   31 1
  20   11   32 1
  21   13   19 1
  22   13   20 1
  23   13   33 1
  24   14   15 1
  25   14   34 1
  26   14   35 1
  27   15   16 1
  28   15   36 1
  29   15   37 1
  30   16   17 1
  31   16   21 1
  32   16   24 1
  33   17   18 1
  34   17   38 1
  35   17   39 1
  36   18   40 1
  37   18   41 1
  38   19   20 1
  39   19   42 1
  40   19   43 1
  41   20   44 1
  42   20   45 1
  43   21   22 1
  44   22   23 1
  45   22   46 1
  46   22   47 1
  47   23   25 ar
  48   23   24 ar
  49   24   28 ar
  50   25   26 ar
  51   25   48 1
  52   26   27 ar
  53   26   49 1
  54   27   28 ar
  55   27   50 1

#	End of record

