#	Name: ASD02198636
#	Creating user name:	WinNT
#	Creation time:	15. 06. 2019 20:19

#	Modifying user name:	WinNT
#	Modification time:	15. 06. 2019 20:19

#	Program:	/corina/corina34_cracker 3.40 0067  02.08.2006

@<TRIPOS>MOLECULE
ASD02198636
  57   61    0    0    0
SMALL
NO_CHARGES


@<TRIPOS>ATOM
   1 C1            -0.7766     2.2971     0.2558 C.2     
   2 C2            -0.6100     0.9834    -0.0580 C.2     
   3 N3            -1.6795     0.1759    -0.2457 N.pl3   
   4 N4            -2.8920     0.5787    -0.1444 N.2     
   5 C5            -3.1945     1.8249     0.1544 C.2     
   6 C6            -2.1041     2.7829     0.3841 C.2     
   7 C7            -1.4501    -1.1663    -0.5671 C.ar    
   8 C8            -2.0209    -1.7157    -1.7083 C.ar    
   9 C9            -1.7899    -3.0495    -2.0228 C.ar    
  10 C10           -0.9901    -3.8274    -1.1962 C.ar    
  11 C11           -0.4239    -3.2770    -0.0615 C.ar    
  12 C12           -0.6461    -1.9505     0.2519 C.ar    
  13 C13           -4.6048     2.2511     0.2616 C.2     
  14 N14           -5.1915     2.8524     1.3394 N.pl3   
  15 N15           -6.5349     3.0851     1.0193 N.2     
  16 C16           -6.7602     2.6483    -0.1941 C.2     
  17 C17           -5.5747     2.1227    -0.7082 C.2     
  18 C18           -4.5623     3.1770     2.5480 C.ar    
  19 C19           -4.7979     4.4078     3.1465 C.ar    
  20 C20           -4.1760     4.7249     4.3381 C.ar    
  21 C21           -3.3190     3.8185     4.9351 C.ar    
  22 C22           -3.0820     2.5923     4.3414 C.ar    
  23 C23           -3.7060     2.2666     3.1531 C.ar    
  24 O24           -2.3308     3.9510     0.6645 O.2     
  25 O25            0.2928     3.1156     0.4456 O.3     
  26 C26            1.5895     2.5329     0.3005 C.3     
  27 F27           -2.7988    -0.9557    -2.5098 F       
  28 N28           -2.3625    -3.6076    -3.1702 N.3     
  29 C29           -3.8386    -3.5333    -3.1157 C.3     
  30 C30           -4.3805    -4.7932    -3.8161 C.3     
  31 C31           -3.1259    -5.5921    -4.2375 C.3     
  32 C32           -2.0335    -5.0519    -3.2807 C.3     
  33 C33           -3.3410    -7.0915    -4.0221 C.3     
  34 F34           -4.4082    -7.5280    -4.8144 F       
  35 F35           -2.1802    -7.7853    -4.3799 F       
  36 F36           -3.6315    -7.3320    -2.6749 F       
  37 H37            0.3872     0.5809    -0.1587 H       
  38 H38           -0.8105    -4.8641    -1.4399 H       
  39 H39            0.1974    -3.8850     0.5795 H       
  40 H40           -0.2017    -1.5242     1.1392 H       
  41 H41           -7.7064     2.6918    -0.7131 H       
  42 H42           -5.4427     1.6871    -1.6876 H       
  43 H43           -5.4666     5.1164     2.6804 H       
  44 H44           -4.3588     5.6819     4.8041 H       
  45 H45           -2.8336     4.0690     5.8668 H       
  46 H46           -2.4119     1.8867     4.8099 H       
  47 H47           -3.5208     1.3086     2.6901 H       
  48 H48            1.7075     1.7247     1.0223 H       
  49 H49            1.6991     2.1372    -0.7092 H       
  50 H50            2.3510     3.2924     0.4778 H       
  51 H51           -4.1713    -3.5132    -2.0779 H       
  52 H52           -4.1850    -2.6408    -3.6368 H       
  53 H53           -4.9873    -5.3786    -3.1253 H       
  54 H54           -4.9652    -4.5165    -4.6934 H       
  55 H55           -2.8667    -5.3838    -5.2756 H       
  56 H56           -1.0421    -5.1887    -3.7123 H       
  57 H57           -2.1007    -5.5373    -2.3070 H       
@<TRIPOS>BOND
   1    1    2 2
   2    1   25 1
   3    1    6 1
   4    2    3 1
   5    2   37 1
   6    3    4 1
   7    3    7 1
   8    4    5 2
   9    5    6 1
  10    5   13 1
  11    6   24 2
  12    7    8 ar
  13    7   12 ar
  14    8    9 ar
  15    8   27 1
  16    9   10 ar
  17    9   28 1
  18   10   11 ar
  19   10   38 1
  20   11   12 ar
  21   11   39 1
  22   12   40 1
  23   13   14 1
  24   13   17 2
  25   14   15 1
  26   14   18 1
  27   15   16 2
  28   16   17 1
  29   16   41 1
  30   17   42 1
  31   18   19 ar
  32   18   23 ar
  33   19   20 ar
  34   19   43 1
  35   20   21 ar
  36   20   44 1
  37   21   22 ar
  38   21   45 1
  39   22   23 ar
  40   22   46 1
  41   23   47 1
  42   25   26 1
  43   26   48 1
  44   26   49 1
  45   26   50 1
  46   28   29 1
  47   28   32 1
  48   29   30 1
  49   29   51 1
  50   29   52 1
  51   30   31 1
  52   30   53 1
  53   30   54 1
  54   31   32 1
  55   31   33 1
  56   31   55 1
  57   32   56 1
  58   32   57 1
  59   33   34 1
  60   33   35 1
  61   33   36 1

#	End of record

