#	Name: ASD01900462
#	Creating user name:	WinNT
#	Creation time:	15. 06. 2019 19:52

#	Modifying user name:	WinNT
#	Modification time:	15. 06. 2019 19:52

#	Program:	/corina/corina34_cracker 3.40 0067  02.08.2006

@<TRIPOS>MOLECULE
ASD01900462
  26   28    0    0    0
SMALL
NO_CHARGES


@<TRIPOS>ATOM
   1 C1            -0.0263     1.3941     0.1278 C.ar    
   2 C2             0.0063     0.0001    -0.0604 C.ar    
   3 C3             1.2232    -0.6716     0.0563 C.ar    
   4 C4             2.3445     0.0584     0.3515 C.ar    
   5 C5             2.2462     1.4355     0.5261 C.ar    
   6 N6             1.0928     2.0581     0.4135 N.ar    
   7 N7            -2.1146     0.7221    -0.3256 N.2     
   8 N8            -1.2760    -0.3973    -0.3368 N.pl3   
   9 C9            -1.4228     1.7963    -0.0514 C.2     
  10 N10           -1.9248     3.0981     0.0450 N.pl3   
  11 F11            3.3571     2.1470     0.8173 F       
  12 C12           -3.3018     3.3244    -0.0404 C.ar    
  13 C13           -4.1948     2.3439     0.3729 C.ar    
  14 C14           -5.5554     2.5700     0.2875 C.ar    
  15 C15           -6.0285     3.7740    -0.2103 C.ar    
  16 C16           -5.1398     4.7516    -0.6229 C.ar    
  17 C17           -3.7788     4.5321    -0.5334 C.ar    
  18 F18           -7.3590     3.9934    -0.2932 F       
  19 Cl19          -6.6725     1.3453     0.8031 Cl      
  20 H20            1.2802    -1.7412    -0.0822 H       
  21 H21            3.3012    -0.4333     0.4487 H       
  22 H22           -1.5571    -1.3090    -0.5120 H       
  23 H23           -1.3176     3.8440     0.1711 H       
  24 H24           -3.8261     1.4056     0.7604 H       
  25 H25           -5.5107     5.6888    -1.0111 H       
  26 H26           -3.0861     5.2973    -0.8511 H       
@<TRIPOS>BOND
   1    1    2 ar
   2    1    6 ar
   3    1    9 1
   4    2    3 ar
   5    2    8 1
   6    3    4 ar
   7    3   20 1
   8    4    5 ar
   9    4   21 1
  10    5    6 ar
  11    5   11 1
  12    7    8 1
  13    7    9 2
  14    8   22 1
  15    9   10 1
  16   10   12 1
  17   10   23 1
  18   12   13 ar
  19   12   17 ar
  20   13   14 ar
  21   13   24 1
  22   14   15 ar
  23   14   19 1
  24   15   16 ar
  25   15   18 1
  26   16   17 ar
  27   16   25 1
  28   17   26 1

#	End of record

