#	Name: ASD03082203
#	Creating user name:	WinNT
#	Creation time:	15. 06. 2019 20:27

#	Modifying user name:	WinNT
#	Modification time:	15. 06. 2019 20:27

#	Program:	/corina/corina34_cracker 3.40 0067  02.08.2006

@<TRIPOS>MOLECULE
ASD03082203
  36   38    0    0    0
SMALL
NO_CHARGES


@<TRIPOS>ATOM
   1 N1             0.1604     1.3120    -0.4029 N.pl3   
   2 N2             0.1418    -0.0847    -0.2591 N.2     
   3 C3             1.3796    -0.4630    -0.0361 C.2     
   4 N4             2.1690     0.6121    -0.0320 N.2     
   5 C5             1.4485     1.6935    -0.2522 C.2     
   6 N6             1.8012    -1.7788     0.1648 N.pl3   
   7 C7             0.8602    -2.8108     0.2408 C.ar    
   8 C8             1.2026    -4.0955    -0.1619 C.ar    
   9 C9             0.2720    -5.1129    -0.0855 C.ar    
  10 C10           -1.0019    -4.8532     0.3916 C.ar    
  11 C11           -1.3455    -3.5735     0.7931 C.ar    
  12 C12           -0.4161    -2.5540     0.7243 C.ar    
  13 C13            0.6429    -6.5067    -0.5222 C.3     
  14 F14            1.9709    -6.5198    -0.9620 F       
  15 F15            0.5000    -7.3867     0.5559 F       
  16 F16           -0.1980    -6.9076    -1.5660 F       
  17 C17            3.5416     4.7000    -1.1118 C.ar    
  18 C18            3.1001     3.3904    -1.0748 C.ar    
  19 C19            1.9593     3.0803    -0.3225 C.ar    
  20 C20            1.3169     4.1187     0.3598 C.ar    
  21 C21            1.8268     5.3975     0.2665 C.ar    
  22 N22            2.9040     5.6477    -0.4523 N.ar    
  23 C23           -0.9874     2.1824    -0.6697 C.3     
  24 O24           -1.6381     2.5033     0.5614 O.3     
  25 F25           -1.9108    -5.8501     0.4651 F       
  26 F26            3.7581     2.4249    -1.7531 F       
  27 H27            2.7467    -1.9772     0.2517 H       
  28 H28            2.1957    -4.2982    -0.5347 H       
  29 H29           -2.3397    -3.3732     1.1646 H       
  30 H30           -0.6832    -1.5569     1.0417 H       
  31 H31            4.4224     4.9495    -1.6848 H       
  32 H32            0.4344     3.9225     0.9506 H       
  33 H33            1.3370     6.2052     0.7901 H       
  34 H34           -0.6445     3.0993    -1.1492 H       
  35 H35           -1.6880     1.6684    -1.3277 H       
  36 H36           -2.4092     3.0782     0.4606 H       
@<TRIPOS>BOND
   1    1    2 1
   2    1    5 1
   3    1   23 1
   4    2    3 2
   5    3    4 1
   6    3    6 1
   7    4    5 2
   8    5   19 1
   9    6    7 1
  10    6   27 1
  11    7    8 ar
  12    7   12 ar
  13    8    9 ar
  14    8   28 1
  15    9   10 ar
  16    9   13 1
  17   10   11 ar
  18   10   25 1
  19   11   12 ar
  20   11   29 1
  21   12   30 1
  22   13   14 1
  23   13   15 1
  24   13   16 1
  25   17   18 ar
  26   17   22 ar
  27   17   31 1
  28   18   19 ar
  29   18   26 1
  30   19   20 ar
  31   20   21 ar
  32   20   32 1
  33   21   22 ar
  34   21   33 1
  35   23   24 1
  36   23   34 1
  37   23   35 1
  38   24   36 1

#	End of record

