#	Name: ASD01911317
#	Creating user name:	WinNT
#	Creation time:	15. 06. 2019 19:57

#	Modifying user name:	WinNT
#	Modification time:	15. 06. 2019 19:57

#	Program:	/corina/corina34_cracker 3.40 0067  02.08.2006

@<TRIPOS>MOLECULE
ASD01911317
  29   30    0    0    0
SMALL
NO_CHARGES


@<TRIPOS>ATOM
   1 C1            -0.0167     1.3797     0.0096 C.ar    
   2 C2             0.0021    -0.0041     0.0020 C.ar    
   3 C3             1.2058    -0.6868    -0.0127 C.ar    
   4 C4             2.3967     0.0084    -0.0203 C.ar    
   5 C5             2.3860     1.4064    -0.0131 C.ar    
   6 C6             1.1660     2.0889     0.0021 C.ar    
   7 C7             3.6184     2.1355    -0.0205 C.1     
   8 C8             4.6288     2.7333    -0.0265 C.1     
   9 C9             5.8613     3.4624    -0.0339 C.2     
  10 C10            6.0138     4.8279    -0.0283 C.2     
  11 C11            7.4100     5.0110    -0.0394 C.2     
  12 N12            7.9430     3.8216    -0.0499 N.2     
  13 O13            7.1063     2.9491    -0.0417 O.3     
  14 C14            8.1451     6.3265    -0.0391 C.3     
  15 C15            8.2718     6.8402    -1.4747 C.3     
  16 C16            7.3695     7.3439     0.8000 C.3     
  17 H17           -0.9600     1.9056     0.0169 H       
  18 H18           -0.9274    -0.5540     0.0079 H       
  19 H19            1.2125    -1.7668    -0.0178 H       
  20 H20            3.3353    -0.5258    -0.0314 H       
  21 H21            1.1498     3.1688     0.0074 H       
  22 H22            5.2430     5.5842    -0.0183 H       
  23 H23            9.1391     6.1872     0.3860 H       
  24 H24            7.2778     6.9795    -1.8998 H       
  25 H25            8.8035     7.7918    -1.4745 H       
  26 H26            8.8243     6.1154    -2.0726 H       
  27 H27            7.2792     6.9780     1.8228 H       
  28 H28            7.9012     8.2955     0.8002 H       
  29 H29            6.3755     7.4832     0.3749 H       
@<TRIPOS>BOND
   1    1    2 ar
   2    1    6 ar
   3    1   17 1
   4    2    3 ar
   5    2   18 1
   6    3    4 ar
   7    3   19 1
   8    4    5 ar
   9    4   20 1
  10    5    6 ar
  11    5    7 1
  12    6   21 1
  13    7    8 3
  14    8    9 1
  15    9   10 2
  16    9   13 1
  17   10   11 1
  18   10   22 1
  19   11   12 2
  20   11   14 1
  21   12   13 1
  22   14   15 1
  23   14   16 1
  24   14   23 1
  25   15   24 1
  26   15   25 1
  27   15   26 1
  28   16   27 1
  29   16   28 1
  30   16   29 1

#	End of record

