#	Name: ASD00430005
#	Creating user name:	WinNT
#	Creation time:	15. 06. 2019 18:35

#	Modifying user name:	WinNT
#	Modification time:	15. 06. 2019 18:35

#	Program:	/corina/corina34_cracker 3.40 0067  02.08.2006

@<TRIPOS>MOLECULE
ASD00430005
  55   55    0    0    0
SMALL
NO_CHARGES


@<TRIPOS>ATOM
   1 C1            -0.0187     1.5258     0.0104 C.3     
   2 C2             0.0021    -0.0041     0.0020 C.3     
   3 C3            -1.4333    -0.5336     0.0129 C.3     
   4 C4            -1.4126    -2.0635     0.0045 C.3     
   5 C5            -2.8479    -2.5931     0.0153 C.3     
   6 C6            -2.8272    -4.1229     0.0069 C.3     
   7 C7            -4.2626    -4.6525     0.0178 C.3     
   8 C8            -4.2418    -6.1823     0.0094 C.3     
   9 C9            -5.6772    -6.7119     0.0202 C.3     
  10 C10           -5.6565    -8.2417     0.0118 C.3     
  11 C11           -7.0918    -8.7713     0.0227 C.3     
  12 C12           -7.0711   -10.3012     0.0143 C.3     
  13 C13           -8.5065   -10.8307     0.0251 C.3     
  14 C14           -8.4857   -12.3606     0.0167 C.3     
  15 O15           -9.8264   -12.8552     0.0268 O.3     
  16 C16           -9.9855   -14.1993     0.0211 C.2     
  17 C17          -11.1784   -14.8556     0.0236 C.2     
  18 O18           -8.9948   -15.1014     0.0064 O.3     
  19 C19           -9.5224   -16.3464     0.0049 C.2     
  20 C20          -10.8965   -16.2252     0.0157 C.2     
  21 C21           -8.7931   -17.5604    -0.0094 C.2     
  22 O22           -7.4436   -17.5368    -0.0226 O.3     
  23 O23           -9.3832   -18.6247    -0.0096 O.2     
  24 H24            1.0039     1.9031     0.0027 H       
  25 H25           -0.5459     1.8868    -0.8726 H       
  26 H26           -0.5289     1.8773     0.9072 H       
  27 H27            0.5123    -0.3556    -0.8948 H       
  28 H28            0.5293    -0.3651     0.8851 H       
  29 H29           -1.9435    -0.1821     0.9097 H       
  30 H30           -1.9605    -0.1726    -0.8702 H       
  31 H31           -0.9024    -2.4150    -0.8923 H       
  32 H32           -0.8854    -2.4246     0.8875 H       
  33 H33           -3.3581    -2.2415     0.9121 H       
  34 H34           -3.3751    -2.2320    -0.8677 H       
  35 H35           -2.3170    -4.4744    -0.8899 H       
  36 H36           -2.3000    -4.4840     0.8900 H       
  37 H37           -4.7728    -4.3010     0.9146 H       
  38 H38           -4.7898    -4.2914    -0.8653 H       
  39 H39           -3.7316    -6.5338    -0.8874 H       
  40 H40           -3.7146    -6.5434     0.8924 H       
  41 H41           -6.1874    -6.3604     0.9170 H       
  42 H42           -6.2044    -6.3508    -0.8628 H       
  43 H43           -5.1463    -8.5933    -0.8850 H       
  44 H44           -5.1293    -8.6028     0.8949 H       
  45 H45           -7.6020    -8.4198     0.9195 H       
  46 H46           -7.6190    -8.4102    -0.8604 H       
  47 H47           -6.5609   -10.6527    -0.8825 H       
  48 H48           -6.5439   -10.6622     0.8973 H       
  49 H49           -9.0167   -10.4792     0.9219 H       
  50 H50           -9.0337   -10.4697    -0.8579 H       
  51 H51           -7.9755   -12.7121    -0.8801 H       
  52 H52           -7.9586   -12.7217     0.8998 H       
  53 H53          -12.1589   -14.4030     0.0306 H       
  54 H54          -11.6151   -17.0314     0.0157 H       
  55 H55           -7.0350   -18.4132    -0.0317 H       
@<TRIPOS>BOND
   1    1    2 1
   2    1   24 1
   3    1   25 1
   4    1   26 1
   5    2    3 1
   6    2   27 1
   7    2   28 1
   8    3    4 1
   9    3   29 1
  10    3   30 1
  11    4    5 1
  12    4   31 1
  13    4   32 1
  14    5    6 1
  15    5   33 1
  16    5   34 1
  17    6    7 1
  18    6   35 1
  19    6   36 1
  20    7    8 1
  21    7   37 1
  22    7   38 1
  23    8    9 1
  24    8   39 1
  25    8   40 1
  26    9   10 1
  27    9   41 1
  28    9   42 1
  29   10   11 1
  30   10   43 1
  31   10   44 1
  32   11   12 1
  33   11   45 1
  34   11   46 1
  35   12   13 1
  36   12   47 1
  37   12   48 1
  38   13   14 1
  39   13   49 1
  40   13   50 1
  41   14   15 1
  42   14   51 1
  43   14   52 1
  44   15   16 1
  45   16   18 1
  46   16   17 2
  47   17   20 1
  48   17   53 1
  49   18   19 1
  50   19   20 2
  51   19   21 1
  52   20   54 1
  53   21   22 1
  54   21   23 2
  55   22   55 1

#	End of record

