#	Name: ASD00061018
#	Creating user name:	WinNT
#	Creation time:	15. 06. 2019 18:29

#	Modifying user name:	WinNT
#	Modification time:	15. 06. 2019 18:29

#	Program:	/corina/corina34_cracker 3.40 0067  02.08.2006

@<TRIPOS>MOLECULE
ASD00061018
  40   42    0    0    0
SMALL
NO_CHARGES


@<TRIPOS>ATOM
   1 C1            -0.0167     1.3829     0.0096 C.ar    
   2 C2             0.0021    -0.0041     0.0020 C.ar    
   3 N3            -1.2094    -0.7085     0.0333 N.am    
   4 C4            -2.1318    -0.3697     0.9530 C.2     
   5 C5            -1.8178     0.6730     1.9890 C.3     
   6 C6            -1.9630     2.0763     1.4001 C.3     
   7 C7            -1.3324     2.1136     0.0066 C.3     
   8 C8             1.1718     2.0868     0.0021 C.ar    
   9 C9             2.3763     1.4078    -0.0237 C.ar    
  10 C10            2.3963     0.0251    -0.0421 C.ar    
  11 C11            1.2106    -0.6844    -0.0288 C.ar    
  12 O12           -3.2192    -0.9069     0.9455 O.2     
  13 C13           -1.4669    -1.7928    -0.9175 C.3     
  14 S14           -2.9591     0.4899     3.3871 S.3     
  15 C15           -2.5326    -1.0890     4.0427 C.ar    
  16 C16           -1.5209    -1.8367     3.4543 C.ar    
  17 C17           -1.1884    -3.0741     3.9707 C.ar    
  18 C18           -1.8621    -3.5694     5.0730 C.ar    
  19 C19           -2.8713    -2.8274     5.6621 C.ar    
  20 C20           -3.2045    -1.5866     5.1542 C.ar    
  21 Cl21          -1.4412    -5.1251     5.7184 Cl      
  22 Cl22          -4.4698    -0.6560     5.8935 Cl      
  23 C23           -0.9894    -3.0973    -0.3332 C.2     
  24 O24           -0.4857    -3.1190     0.7648 O.2     
  25 O25           -1.1236    -4.2350    -1.0326 O.3     
  26 H26           -0.7952     0.5345     2.3400 H       
  27 H27           -3.0200     2.3321     1.3274 H       
  28 H28           -1.4589     2.7952     2.0460 H       
  29 H29           -1.1689     3.1502    -0.2880 H       
  30 H30           -2.0062     1.6399    -0.7074 H       
  31 H31            1.1604     3.1666     0.0159 H       
  32 H32            3.3048     1.9594    -0.0298 H       
  33 H33            3.3394    -0.5006    -0.0666 H       
  34 H34            1.2247    -1.7642    -0.0430 H       
  35 H35           -2.5366    -1.8543    -1.1176 H       
  36 H36           -0.9341    -1.5946    -1.8476 H       
  37 H37           -0.9949    -1.4513     2.5934 H       
  38 H38           -0.4017    -3.6557     3.5133 H       
  39 H39           -3.3959    -3.2170     6.5220 H       
  40 H40           -0.8025    -5.0467    -0.6164 H       
@<TRIPOS>BOND
   1    1    2 ar
   2    1    8 ar
   3    1    7 1
   4    2    3 1
   5    2   11 ar
   6    3    4 am
   7    3   13 1
   8    4    5 1
   9    4   12 2
  10    5    6 1
  11    5   14 1
  12    5   26 1
  13    6    7 1
  14    6   27 1
  15    6   28 1
  16    7   29 1
  17    7   30 1
  18    8    9 ar
  19    8   31 1
  20    9   10 ar
  21    9   32 1
  22   10   11 ar
  23   10   33 1
  24   11   34 1
  25   13   23 1
  26   13   35 1
  27   13   36 1
  28   14   15 1
  29   15   16 ar
  30   15   20 ar
  31   16   17 ar
  32   16   37 1
  33   17   18 ar
  34   17   38 1
  35   18   19 ar
  36   18   21 1
  37   19   20 ar
  38   19   39 1
  39   20   22 1
  40   23   24 2
  41   23   25 1
  42   25   40 1

#	End of record

