#	Name: ASD07330023
#	Creating user name:	WinNT
#	Creation time:	15. 06. 2019 21:11

#	Modifying user name:	WinNT
#	Modification time:	15. 06. 2019 21:11

#	Program:	/corina/corina34_cracker 3.40 0067  02.08.2006

@<TRIPOS>MOLECULE
ASD07330023
  82   85    0    0    0
SMALL
NO_CHARGES


@<TRIPOS>ATOM
   1 C1             1.1694     2.8066     1.5063 C.ar    
   2 C2             2.0452     2.5666     2.5547 C.ar    
   3 N3             3.0649     1.7436     2.4304 N.ar    
   4 C4             3.3034     1.1017     1.2910 C.ar    
   5 C5             2.4500     1.2995     0.1818 C.ar    
   6 C6             1.3644     2.1683     0.2941 C.ar    
   7 N7             4.3536     0.2542     1.1619 N.2     
   8 C8             4.5908    -0.3748     0.0504 C.2     
   9 N9             3.8233    -0.2438    -1.0631 N.am    
  10 C10            2.7444     0.5741    -1.0609 C.2     
  11 O11            2.0459     0.7028    -2.0495 O.2     
  12 C12            4.1511    -0.9603    -2.2226 C.ar    
  13 C13            3.3508    -2.0173    -2.6354 C.ar    
  14 C14            3.6739    -2.7223    -3.7777 C.ar    
  15 C15            4.7979    -2.3747    -4.5131 C.ar    
  16 C16            5.5979    -1.3187    -4.1011 C.ar    
  17 C17            5.2729    -0.6096    -2.9619 C.ar    
  18 C18            5.7804    -1.2983    -0.0073 C.3     
  19 C19            6.7137    -1.0017     1.1682 C.3     
  20 N20            5.3238    -2.6882     0.0702 N.am    
  21 C21            4.4694    -3.1177     1.1800 C.3     
  22 C22            3.0030    -3.0576     0.7475 C.3     
  23 C23            5.6899    -3.5717    -0.8795 C.2     
  24 C24            5.2202    -5.0014    -0.7997 C.3     
  25 O25            6.3972    -3.2161    -1.7982 O.2     
  26 C26            5.7649    -5.7752    -1.9726 C.ar    
  27 C27            6.9871    -6.4137    -1.8713 C.ar    
  28 C28            5.0397    -5.8509    -3.1468 C.ar    
  29 C29            5.5380    -6.5607    -4.2230 C.ar    
  30 C30            6.7641    -7.1960    -4.1246 C.ar    
  31 C31            7.4874    -7.1239    -2.9459 C.ar    
  32 F32            7.2522    -7.8901    -5.1759 F       
  33 O33            5.1158    -3.0695    -5.6375 O.3     
  34 C34            6.4808    -3.5496    -7.5731 C.3     
  35 C35            6.2866    -2.6573    -6.3455 C.3     
  36 P36            1.9507    -3.7388     2.0711 P.3     
  37 O37            0.5322    -3.6807     1.6528 O.2     
  38 O38            2.3651    -5.2690     2.3522 O.3     
  39 C39            2.3108    -7.4954     3.2908 C.3     
  40 C40            1.6565    -6.1126     3.2623 C.3     
  41 O41            2.1500    -2.8735     3.4141 O.3     
  42 C42            1.8266    -2.1023     5.6815 C.3     
  43 C43            1.3854    -3.0920     4.6014 C.3     
  44 C44            8.8224    -7.8145    -2.8372 C.3     
  45 F45            9.3561    -7.5998    -1.5620 F       
  46 F46            8.6557    -9.1875    -3.0479 F       
  47 F47            9.6947    -7.2974    -3.8010 F       
  48 H48            0.3382     3.4838     1.6365 H       
  49 H49            1.8865     3.0685     3.4977 H       
  50 H50            0.6970     2.3368    -0.5381 H       
  51 H51            2.4760    -2.2882    -2.0629 H       
  52 H52            3.0517    -3.5446    -4.0987 H       
  53 H53            6.4729    -1.0488    -4.6737 H       
  54 H54            5.8955     0.2127    -2.6415 H       
  55 H55            6.3155    -1.1433    -0.9442 H       
  56 H56            7.5288    -1.7254     1.1765 H       
  57 H57            7.1215     0.0037     1.0637 H       
  58 H58            6.1557    -1.0722     2.1019 H       
  59 H59            4.7240    -4.1399     1.4601 H       
  60 H60            4.6237    -2.4579     2.0338 H       
  61 H61            2.7225    -2.0217     0.5573 H       
  62 H62            2.8681    -3.6434    -0.1617 H       
  63 H63            5.5761    -5.4495     0.1280 H       
  64 H64            4.1308    -5.0277    -0.8215 H       
  65 H65            7.5512    -6.3571    -0.9520 H       
  66 H66            4.0831    -5.3554    -3.2233 H       
  67 H67            4.9710    -6.6199    -5.1403 H       
  68 H68            6.5947    -4.5859    -7.2547 H       
  69 H69            5.6122    -3.4635    -8.2260 H       
  70 H70            7.3738    -3.2352    -8.1132 H       
  71 H71            6.1727    -1.6211    -6.6639 H       
  72 H72            7.1552    -2.7435    -5.6927 H       
  73 H73            3.3471    -7.4004     3.6151 H       
  74 H74            1.7704    -8.1388     3.9850 H       
  75 H75            2.2811    -7.9320     2.2925 H       
  76 H76            1.6863    -5.6760     4.2606 H       
  77 H77            0.6203    -6.2076     2.9380 H       
  78 H78            2.8847    -2.2493     5.8986 H       
  79 H79            1.6663    -1.0837     5.3284 H       
  80 H80            1.2434    -2.2690     6.5871 H       
  81 H81            0.3273    -2.9451     4.3843 H       
  82 H82            1.5457    -4.1107     4.9545 H       
@<TRIPOS>BOND
   1    1    2 ar
   2    1    6 ar
   3    1   48 1
   4    2    3 ar
   5    2   49 1
   6    3    4 ar
   7    4    5 ar
   8    4    7 1
   9    5    6 ar
  10    5   10 1
  11    6   50 1
  12    7    8 2
  13    8    9 1
  14    8   18 1
  15    9   10 am
  16    9   12 1
  17   10   11 2
  18   12   13 ar
  19   12   17 ar
  20   13   14 ar
  21   13   51 1
  22   14   15 ar
  23   14   52 1
  24   15   16 ar
  25   15   33 1
  26   16   17 ar
  27   16   53 1
  28   17   54 1
  29   18   19 1
  30   18   20 1
  31   18   55 1
  32   19   56 1
  33   19   57 1
  34   19   58 1
  35   20   21 1
  36   20   23 am
  37   21   22 1
  38   21   59 1
  39   21   60 1
  40   22   36 1
  41   22   61 1
  42   22   62 1
  43   23   24 1
  44   23   25 2
  45   24   26 1
  46   24   63 1
  47   24   64 1
  48   26   27 ar
  49   26   28 ar
  50   27   31 ar
  51   27   65 1
  52   28   29 ar
  53   28   66 1
  54   29   30 ar
  55   29   67 1
  56   30   31 ar
  57   30   32 1
  58   31   44 1
  59   33   35 1
  60   34   35 1
  61   34   68 1
  62   34   69 1
  63   34   70 1
  64   35   71 1
  65   35   72 1
  66   36   37 2
  67   36   38 1
  68   36   41 1
  69   38   40 1
  70   39   40 1
  71   39   73 1
  72   39   74 1
  73   39   75 1
  74   40   76 1
  75   40   77 1
  76   41   43 1
  77   42   43 1
  78   42   78 1
  79   42   79 1
  80   42   80 1
  81   43   81 1
  82   43   82 1
  83   44   45 1
  84   44   46 1
  85   44   47 1

#	End of record

