#	Name: ASD00100161
#	Creating user name:	WinNT
#	Creation time:	15. 06. 2019 18:30

#	Modifying user name:	WinNT
#	Modification time:	15. 06. 2019 18:30

#	Program:	/corina/corina34_cracker 3.40 0067  02.08.2006

@<TRIPOS>MOLECULE
ASD00100161
  52   55    0    0    0
SMALL
NO_CHARGES


@<TRIPOS>ATOM
   1 C1            -1.6277     1.7794     0.6344 C.2     
   2 C2            -1.5132     0.3069     0.6949 C.ar    
   3 C3            -2.4638    -0.4422     1.3903 C.ar    
   4 C4            -2.3513    -1.8162     1.4424 C.ar    
   5 C5            -1.2989    -2.4517     0.8077 C.ar    
   6 C6            -0.3529    -1.7151     0.1171 C.ar    
   7 C7            -0.4571    -0.3411     0.0519 C.ar    
   8 O8            -2.5513     2.3405     1.1911 O.2     
   9 N9            -0.7051     2.5002    -0.0332 N.am    
  10 C10           -0.8698     3.8811    -0.1815 C.ar    
  11 C11           -2.1424     4.4187    -0.3042 C.ar    
  12 C12           -2.3013     5.7942    -0.4517 C.ar    
  13 C13           -1.1804     6.6231    -0.4752 C.ar    
  14 C14            0.0828     6.0801    -0.3529 C.ar    
  15 C15            0.2412     4.7155    -0.2003 C.ar    
  16 C16           -5.8235     6.5269    -0.7161 C.2     
  17 N17           -4.8277     5.6861    -0.5771 N.2     
  18 C18           -3.6594     6.3759    -0.5840 C.2     
  19 C19           -3.9530     7.6914    -0.7332 C.2     
  20 N20           -5.3208     7.7876    -0.8168 N.pl3   
  21 C21           -6.0954     9.0198    -0.9835 C.3     
  22 C22           -6.5207     9.5326     0.3683 C.ar    
  23 C23           -5.6669    10.3417     1.1041 C.ar    
  24 C24           -6.0613    10.8120     2.3480 C.ar    
  25 C25           -7.3029    10.4739     2.8512 C.ar    
  26 C26           -8.1516     9.6672     2.1163 C.ar    
  27 C27           -7.7631     9.2021     0.8733 C.ar    
  28 O28           -4.4460    10.6725     0.6072 O.3     
  29 C29           -3.6199    11.5089     1.4195 C.3     
  30 N30           -7.1650     6.1879    -0.7593 N.pl3   
  31 H31           -3.2854     0.0527     1.8868 H       
  32 H32           -3.0861    -2.3970     1.9801 H       
  33 H33           -1.2152    -3.5276     0.8519 H       
  34 H34            0.4663    -2.2174    -0.3759 H       
  35 H35            0.2794     0.2324    -0.4912 H       
  36 H36            0.0731     2.0612    -0.4108 H       
  37 H37           -3.0075     3.7725    -0.2858 H       
  38 H38           -1.3005     7.6903    -0.5895 H       
  39 H39            0.9497     6.7239    -0.3721 H       
  40 H40            1.2314     4.2962    -0.1001 H       
  41 H41           -3.2467     8.5071    -0.7781 H       
  42 H42           -5.4809     9.7708    -1.4801 H       
  43 H43           -6.9784     8.8148    -1.5887 H       
  44 H44           -5.3984    11.4417     2.9228 H       
  45 H45           -7.6104    10.8398     3.8197 H       
  46 H46           -9.1214     9.4034     2.5117 H       
  47 H47           -8.4298     8.5760     0.2989 H       
  48 H48           -2.6764    11.6959     0.9066 H       
  49 H49           -4.1285    12.4557     1.6011 H       
  50 H50           -3.4245    11.0132     2.3704 H       
  51 H51           -7.4299     5.2548    -0.7541 H       
  52 H52           -7.8402     6.8835    -0.7947 H       
@<TRIPOS>BOND
   1    1    2 1
   2    1    8 2
   3    1    9 am
   4    2    3 ar
   5    2    7 ar
   6    3    4 ar
   7    3   31 1
   8    4    5 ar
   9    4   32 1
  10    5    6 ar
  11    5   33 1
  12    6    7 ar
  13    6   34 1
  14    7   35 1
  15    9   10 1
  16    9   36 1
  17   10   11 ar
  18   10   15 ar
  19   11   12 ar
  20   11   37 1
  21   12   13 ar
  22   12   18 1
  23   13   14 ar
  24   13   38 1
  25   14   15 ar
  26   14   39 1
  27   15   40 1
  28   16   17 2
  29   16   20 1
  30   16   30 1
  31   17   18 1
  32   18   19 2
  33   19   20 1
  34   19   41 1
  35   20   21 1
  36   21   22 1
  37   21   42 1
  38   21   43 1
  39   22   23 ar
  40   22   27 ar
  41   23   24 ar
  42   23   28 1
  43   24   25 ar
  44   24   44 1
  45   25   26 ar
  46   25   45 1
  47   26   27 ar
  48   26   46 1
  49   27   47 1
  50   28   29 1
  51   29   48 1
  52   29   49 1
  53   29   50 1
  54   30   51 1
  55   30   52 1

#	End of record

