#	Name: ASD04930098
#	Creating user name:	WinNT
#	Creation time:	15. 06. 2019 20:56

#	Modifying user name:	WinNT
#	Modification time:	15. 06. 2019 20:56

#	Program:	/corina/corina34_cracker 3.40 0067  02.08.2006

@<TRIPOS>MOLECULE
ASD04930098
  86   89    0    0    0
SMALL
NO_CHARGES


@<TRIPOS>ATOM
   1 N1             1.5996     1.3521     1.1963 N.am    
   2 C2             1.6042     0.0083     1.1915 C.2     
   3 C3             1.2693    -0.7392    -0.0198 C.2     
   4 C4             0.9417    -0.0364    -1.1817 C.2     
   5 C5             0.9490     1.4293    -1.1323 C.ar    
   6 C6             0.6289     2.1818    -2.2683 C.ar    
   7 C7             0.6409     3.5460    -2.2050 C.ar    
   8 C8             0.9689     4.1933    -1.0217 C.ar    
   9 C9             1.2872     3.4726     0.1086 C.ar    
  10 C10            1.2814     2.0806     0.0686 C.ar    
  11 C11            1.2777    -2.2073    -0.0149 C.2     
  12 O12            2.3300    -2.8100    -0.1147 O.2     
  13 N13            0.1199    -2.8874     0.1001 N.am    
  14 N14            0.1142    -4.2842    -0.0085 N.am    
  15 O15            1.8917    -0.5952     2.2099 O.2     
  16 O16            0.6272    -0.6892    -2.3200 O.3     
  17 C17           -0.0259    -5.0453     1.0949 C.2     
  18 C18           -0.1763    -4.3939     2.4455 C.3     
  19 C19           -0.3172    -5.4742     3.5198 C.3     
  20 C20           -0.4700    -4.8128     4.8910 C.3     
  21 C21           -0.6108    -5.8930     5.9654 C.3     
  22 C22           -0.7636    -5.2317     7.3366 C.3     
  23 C23           -0.9044    -6.3119     8.4109 C.3     
  24 C24           -1.0572    -5.6506     9.7821 C.3     
  25 C25           -1.1980    -6.7308    10.8565 C.3     
  26 C26           -1.3508    -6.0694    12.2277 C.3     
  27 C27           -1.4917    -7.1497    13.3020 C.3     
  28 C28           -1.6444    -6.4883    14.6732 C.3     
  29 O29           -0.0308    -6.2545     1.0009 O.2     
  30 C30            1.9353     2.0622     2.4330 C.3     
  31 C31            3.4207     2.3117     2.4815 C.ar    
  32 C32            3.9443     3.4733     1.9453 C.ar    
  33 C33            5.3068     3.7022     1.9898 C.ar    
  34 C34            6.1457     2.7698     2.5709 C.ar    
  35 C35            5.6220     1.6086     3.1078 C.ar    
  36 C36            4.2590     1.3817     3.0672 C.ar    
  37 C37            0.2605    -4.9174    -1.3215 C.3     
  38 C38            1.7085    -5.2648    -1.5531 C.ar    
  39 C39            2.1946    -6.4981    -1.1612 C.ar    
  40 C40            3.5229    -6.8167    -1.3737 C.ar    
  41 C41            4.3649    -5.9022    -1.9784 C.ar    
  42 C42            3.8785    -4.6693    -2.3711 C.ar    
  43 C43            2.5492    -4.3523    -2.1626 C.ar    
  44 H44            0.3734     1.6849    -3.1926 H       
  45 H45            0.3937     4.1255    -3.0822 H       
  46 H46            0.9749     5.2728    -0.9867 H       
  47 H47            1.5413     3.9863     1.0239 H       
  48 H48           -0.7095    -2.4099     0.2580 H       
  49 H49            0.7277    -1.6493    -2.2634 H       
  50 H50            0.7032    -3.7853     2.6553 H       
  51 H51           -1.0644    -3.7619     2.4471 H       
  52 H52           -1.1967    -6.0828     3.3100 H       
  53 H53            0.5709    -6.1062     3.5182 H       
  54 H54            0.4096    -4.2042     5.1009 H       
  55 H55           -1.3580    -4.1808     4.8927 H       
  56 H56           -1.4903    -6.5017     5.7555 H       
  57 H57            0.2772    -6.5251     5.9637 H       
  58 H58            0.1160    -4.6230     7.5464 H       
  59 H59           -1.6516    -4.5997     7.3382 H       
  60 H60           -1.7840    -6.9206     8.2011 H       
  61 H61           -0.0164    -6.9439     8.4093 H       
  62 H62           -0.1777    -5.0419     9.9920 H       
  63 H63           -1.9452    -5.0185     9.7838 H       
  64 H64           -2.0776    -7.3394    10.6466 H       
  65 H65           -0.3100    -7.3628    10.8548 H       
  66 H66           -0.4713    -5.4608    12.4375 H       
  67 H67           -2.2389    -5.4374    12.2293 H       
  68 H68           -2.3712    -7.7583    13.0922 H       
  69 H69           -0.6036    -7.7817    13.3004 H       
  70 H70           -1.7448    -7.2579    15.4386 H       
  71 H71           -0.7649    -5.8797    14.8831 H       
  72 H72           -2.5325    -5.8563    14.6749 H       
  73 H73            1.4058     3.0145     2.4603 H       
  74 H74            1.6402     1.4576     3.2906 H       
  75 H75            3.2888     4.2018     1.4914 H       
  76 H76            5.7159     4.6094     1.5703 H       
  77 H77            7.2103     2.9483     2.6050 H       
  78 H78            6.2775     0.8799     3.5615 H       
  79 H79            3.8495     0.4762     3.4900 H       
  80 H80           -0.3411    -5.8258    -1.3558 H       
  81 H81           -0.0765    -4.2290    -2.0965 H       
  82 H82            1.5368    -7.2125    -0.6888 H       
  83 H83            3.9029    -7.7800    -1.0668 H       
  84 H84            5.4028    -6.1509    -2.1437 H       
  85 H85            4.5364    -3.9547    -2.8433 H       
  86 H86            2.1683    -3.3905    -2.4728 H       
@<TRIPOS>BOND
   1    1    2 am
   2    1   10 1
   3    1   30 1
   4    2    3 1
   5    2   15 2
   6    3    4 2
   7    3   11 1
   8    4    5 1
   9    4   16 1
  10    5    6 ar
  11    5   10 ar
  12    6    7 ar
  13    6   44 1
  14    7    8 ar
  15    7   45 1
  16    8    9 ar
  17    8   46 1
  18    9   10 ar
  19    9   47 1
  20   11   12 2
  21   11   13 am
  22   13   14 1
  23   13   48 1
  24   14   17 am
  25   14   37 1
  26   16   49 1
  27   17   18 1
  28   17   29 2
  29   18   19 1
  30   18   50 1
  31   18   51 1
  32   19   20 1
  33   19   52 1
  34   19   53 1
  35   20   21 1
  36   20   54 1
  37   20   55 1
  38   21   22 1
  39   21   56 1
  40   21   57 1
  41   22   23 1
  42   22   58 1
  43   22   59 1
  44   23   24 1
  45   23   60 1
  46   23   61 1
  47   24   25 1
  48   24   62 1
  49   24   63 1
  50   25   26 1
  51   25   64 1
  52   25   65 1
  53   26   27 1
  54   26   66 1
  55   26   67 1
  56   27   28 1
  57   27   68 1
  58   27   69 1
  59   28   70 1
  60   28   71 1
  61   28   72 1
  62   30   31 1
  63   30   73 1
  64   30   74 1
  65   31   32 ar
  66   31   36 ar
  67   32   33 ar
  68   32   75 1
  69   33   34 ar
  70   33   76 1
  71   34   35 ar
  72   34   77 1
  73   35   36 ar
  74   35   78 1
  75   36   79 1
  76   37   38 1
  77   37   80 1
  78   37   81 1
  79   38   39 ar
  80   38   43 ar
  81   39   40 ar
  82   39   82 1
  83   40   41 ar
  84   40   83 1
  85   41   42 ar
  86   41   84 1
  87   42   43 ar
  88   42   85 1
  89   43   86 1

#	End of record

