#	Name: ASD01884434
#	Creating user name:	WinNT
#	Creation time:	15. 06. 2019 19:48

#	Modifying user name:	WinNT
#	Modification time:	15. 06. 2019 19:48

#	Program:	/corina/corina34_cracker 3.40 0067  02.08.2006

@<TRIPOS>MOLECULE
ASD01884434
  39   41    0    0    0
SMALL
NO_CHARGES


@<TRIPOS>ATOM
   1 C1            -0.0164     1.3573     0.0095 C.2     
   2 C2             0.0021    -0.0041     0.0020 C.2     
   3 C3             1.2446    -0.6751    -0.0134 C.2     
   4 C4             2.4033     0.0473    -0.0206 C.2     
   5 N5             2.3703     1.4026    -0.0126 N.am    
   6 C6             1.1988     2.0651     0.0017 C.2     
   7 C7             1.2907    -2.1573    -0.0214 C.ar    
   8 C8             3.6267     2.1561    -0.0201 C.3     
   9 O9             1.1911     3.2854     0.0083 O.2     
  10 C10            4.0441     2.4226    -1.4434 C.ar    
  11 C11            3.6197     3.5716    -2.0843 C.ar    
  12 C12            4.0023     3.8165    -3.3896 C.ar    
  13 C13            4.8101     2.9115    -4.0549 C.ar    
  14 C14            5.2345     1.7618    -3.4129 C.ar    
  15 C15            4.8560     1.5207    -2.1056 C.ar    
  16 C16            0.8126    -2.8753     1.0748 C.ar    
  17 C17            1.8067    -2.8327    -1.1274 C.ar    
  18 C18            1.8491    -4.2089    -1.1360 C.ar    
  19 C19            1.3756    -4.9285    -0.0367 C.ar    
  20 C20            0.8546    -4.2516     1.0681 C.ar    
  21 Cl21           5.2906     3.2182    -5.6946 Cl      
  22 C22            1.4207    -6.4049    -0.0450 C.2     
  23 C23            0.9708    -7.0880     0.9993 C.2     
  24 H24           -0.9563     1.8892     0.0169 H       
  25 H25           -0.9217    -0.5636     0.0082 H       
  26 H26            3.3539    -0.4652    -0.0325 H       
  27 H27            3.4853     3.1033     0.5005 H       
  28 H28            4.4008     1.5768     0.4832 H       
  29 H29            2.9888     4.2778    -1.5650 H       
  30 H30            3.6704     4.7140    -3.8904 H       
  31 H31            5.8652     1.0550    -3.9317 H       
  32 H32            5.1872     0.6233    -1.6044 H       
  33 H33            0.4098    -2.3517     1.9291 H       
  34 H34            2.1729    -2.2760    -1.9773 H       
  35 H35            2.2481    -4.7316    -1.9927 H       
  36 H36            0.4886    -4.8073     1.9188 H       
  37 H37            1.8199    -6.9282    -0.9013 H       
  38 H38            1.0038    -8.1675     0.9932 H       
  39 H39            0.5717    -6.5647     1.8556 H       
@<TRIPOS>BOND
   1    1    2 2
   2    1    6 1
   3    1   24 1
   4    2    3 1
   5    2   25 1
   6    3    4 2
   7    3    7 1
   8    4    5 1
   9    4   26 1
  10    5    6 am
  11    5    8 1
  12    6    9 2
  13    7   16 ar
  14    7   17 ar
  15    8   10 1
  16    8   27 1
  17    8   28 1
  18   10   11 ar
  19   10   15 ar
  20   11   12 ar
  21   11   29 1
  22   12   13 ar
  23   12   30 1
  24   13   14 ar
  25   13   21 1
  26   14   15 ar
  27   14   31 1
  28   15   32 1
  29   16   20 ar
  30   16   33 1
  31   17   18 ar
  32   17   34 1
  33   18   19 ar
  34   18   35 1
  35   19   20 ar
  36   19   22 1
  37   20   36 1
  38   22   23 2
  39   22   37 1
  40   23   38 1
  41   23   39 1

#	End of record

