#	Name: ASD01190180
#	Creating user name:	WinNT
#	Creation time:	15. 06. 2019 19:07

#	Modifying user name:	WinNT
#	Modification time:	15. 06. 2019 19:07

#	Program:	/corina/corina34_cracker 3.40 0067  02.08.2006

@<TRIPOS>MOLECULE
ASD01190180
  49   53    0    0    0
SMALL
NO_CHARGES


@<TRIPOS>ATOM
   1 C1            -0.0187     1.5258     0.0104 C.3     
   2 C2             0.0148     0.0356     0.3557 C.3     
   3 N3             5.1617     3.6978     0.2016 N.pl3   
   4 N4             5.0016     4.4762     1.3545 N.2     
   5 C5             3.7914     4.3377     1.8151 C.2     
   6 C6             3.0849     3.4461     0.9726 C.ar    
   7 C7             1.7792     2.9382     0.9796 C.ar    
   8 C8             1.3861     2.0712     0.0024 C.ar    
   9 C9             2.2678     1.6854    -1.0002 C.ar    
  10 C10            3.5463     2.1661    -1.0290 C.ar    
  11 C11            3.9754     3.0527    -0.0452 C.ar    
  12 N12            8.2014     4.0959    -1.5952 N.pl3   
  13 N13            7.9073     2.7501    -1.8479 N.2     
  14 C14            6.7899     2.4509    -1.2371 C.2     
  15 C15            6.3325     3.5988    -0.5725 C.2     
  16 C16            7.2215     4.5975    -0.8103 C.2     
  17 C17            9.3690     4.8297    -2.0895 C.3     
  18 N18           -1.5998     1.2929    -3.3066 N.pl3   
  19 C19           -1.1150     0.7452    -2.1503 C.2     
  20 C20           -0.6377     1.7122    -1.3508 C.2     
  21 C21           -0.8329     2.9831    -2.0527 C.ar    
  22 C22           -0.5482     4.3151    -1.7455 C.ar    
  23 C23           -0.8634     5.2995    -2.6390 C.ar    
  24 C24           -1.4649     4.9863    -3.8503 C.ar    
  25 C25           -1.7550     3.6790    -4.1734 C.ar    
  26 C26           -1.4423     2.6604    -3.2788 C.ar    
  27 C27           -2.1924     0.5364    -4.4124 C.3     
  28 F28            0.5895    -0.1375     1.6194 F       
  29 F29           -1.2893    -0.4707     0.3632 F       
  30 F30            0.7748    -0.6475    -0.5998 F       
  31 O31           -0.7950     2.2235     0.9864 O.3     
  32 H32            3.3930     4.8223     2.6942 H       
  33 H33            1.0873     3.2312     1.7553 H       
  34 H34            1.9387     0.9976    -1.7650 H       
  35 H35            4.2225     1.8589    -1.8130 H       
  36 H36            6.3032     1.4867    -1.2435 H       
  37 H37            7.1576     5.6096    -0.4389 H       
  38 H38            9.1319     5.2847    -3.0512 H       
  39 H39            9.6378     5.6083    -1.3756 H       
  40 H40           10.2062     4.1421    -2.2095 H       
  41 H41           -1.1164    -0.3090    -1.9153 H       
  42 H42           -0.0807     4.5664    -0.8049 H       
  43 H43           -0.6433     6.3297    -2.4008 H       
  44 H44           -1.7082     5.7755    -4.5463 H       
  45 H45           -2.2234     3.4455    -5.1181 H       
  46 H46           -3.2667     0.4426    -4.2538 H       
  47 H47           -2.0079     1.0596    -5.3506 H       
  48 H48           -1.7435    -0.4560    -4.4554 H       
  49 H49           -0.8595     3.1757     0.8303 H       
@<TRIPOS>BOND
   1    1    2 1
   2    1    8 1
   3    1   20 1
   4    1   31 1
   5    2   28 1
   6    2   29 1
   7    2   30 1
   8    3    4 1
   9    3   11 1
  10    3   15 1
  11    4    5 2
  12    5    6 1
  13    5   32 1
  14    6    7 ar
  15    6   11 ar
  16    7    8 ar
  17    7   33 1
  18    8    9 ar
  19    9   10 ar
  20    9   34 1
  21   10   11 ar
  22   10   35 1
  23   12   13 1
  24   12   16 1
  25   12   17 1
  26   13   14 2
  27   14   15 1
  28   14   36 1
  29   15   16 2
  30   16   37 1
  31   17   38 1
  32   17   39 1
  33   17   40 1
  34   18   19 1
  35   18   26 1
  36   18   27 1
  37   19   20 2
  38   19   41 1
  39   20   21 1
  40   21   22 ar
  41   21   26 ar
  42   22   23 ar
  43   22   42 1
  44   23   24 ar
  45   23   43 1
  46   24   25 ar
  47   24   44 1
  48   25   26 ar
  49   25   45 1
  50   27   46 1
  51   27   47 1
  52   27   48 1
  53   31   49 1

#	End of record

