#	Name: ASD04490006
#	Creating user name:	WinNT
#	Creation time:	15. 06. 2019 20:49

#	Modifying user name:	WinNT
#	Modification time:	15. 06. 2019 20:49

#	Program:	/corina/corina34_cracker 3.40 0067  02.08.2006

@<TRIPOS>MOLECULE
ASD04490006
  35   36    0    0    0
SMALL
NO_CHARGES


@<TRIPOS>ATOM
   1 O1             0.7642     0.0762    -0.2233 O.3     
   2 C2             1.2612    -1.1170     0.1224 C.2     
   3 C3             2.5779    -0.9931     0.4452 C.2     
   4 C4             2.8995     0.4384     0.2711 C.ar    
   5 C5             1.7057     1.0408    -0.1505 C.ar    
   6 C6             4.0525     1.1995     0.4364 C.ar    
   7 C7             4.0177     2.5573     0.1827 C.ar    
   8 C8             2.8310     3.1593    -0.2366 C.ar    
   9 C9             1.6835     2.4072    -0.4026 C.ar    
  10 C10            0.4800    -2.4054     0.1506 C.3     
  11 C11            3.4895    -2.0609     0.8773 C.2     
  12 O12            4.1301    -2.6839     0.0529 O.2     
  13 O13            3.6158    -2.3500     2.1881 O.3     
  14 C14            4.5347    -3.4170     2.5422 C.3     
  15 C15            4.5439    -3.5989     4.0613 C.3     
  16 S16            5.3726     3.7800     1.7704 S.o2    
  17 O17            6.3903     4.8176     1.7094 O.co2   
  18 O18            4.0997     4.2915     2.2544 O.co2   
  19 O19            5.1412     3.3077     0.3422 O.3     
  20 O20            5.8190     2.6213     2.5282 O.co2   
  21 S21            3.0104     4.8598    -1.9472 S.o2    
  22 O22            3.2706     6.2904    -1.9914 O.co2   
  23 O23            4.1481     4.0834    -2.4152 O.co2   
  24 O24            2.8032     4.4965    -0.4838 O.3     
  25 O25            1.7840     4.5062    -2.6449 O.co2   
  26 H26            4.9699     0.7315     0.7618 H       
  27 H27            0.7694     2.8814    -0.7281 H       
  28 H28           -0.5488    -2.2133    -0.1539 H       
  29 H29            0.9343    -3.1208    -0.5349 H       
  30 H30            0.4896    -2.8140     1.1611 H       
  31 H31            4.2148    -4.3445     2.0672 H       
  32 H32            5.5377    -3.1611     2.2008 H       
  33 H33            4.8638    -2.6714     4.5363 H       
  34 H34            3.5409    -3.8548     4.4028 H       
  35 H35            5.2337    -4.3999     4.3272 H       
@<TRIPOS>BOND
   1    1    2 1
   2    1    5 1
   3    2    3 2
   4    2   10 1
   5    3    4 1
   6    3   11 1
   7    4    5 ar
   8    4    6 ar
   9    5    9 ar
  10    6    7 ar
  11    6   26 1
  12    7    8 ar
  13    7   19 1
  14    8    9 ar
  15    8   24 1
  16    9   27 1
  17   10   28 1
  18   10   29 1
  19   10   30 1
  20   11   12 2
  21   11   13 1
  22   13   14 1
  23   14   15 1
  24   14   31 1
  25   14   32 1
  26   15   33 1
  27   15   34 1
  28   15   35 1
  29   16   17 ar
  30   16   18 ar
  31   16   19 1
  32   16   20 ar
  33   21   22 ar
  34   21   23 ar
  35   21   24 1
  36   21   25 ar

#	End of record

