#	Name: ASD01881329
#	Creating user name:	WinNT
#	Creation time:	15. 06. 2019 19:42

#	Modifying user name:	WinNT
#	Modification time:	15. 06. 2019 19:42

#	Program:	/corina/corina34_cracker 3.40 0067  02.08.2006

@<TRIPOS>MOLECULE
ASD01881329
  42   45    0    0    0
SMALL
NO_CHARGES


@<TRIPOS>ATOM
   1 C1             0.0599     1.4747     0.2305 C.2     
   2 C2             0.0546     0.0728     0.1845 C.2     
   3 C3            -1.1812    -0.6073     0.2002 C.2     
   4 C4            -2.3438     0.0687     0.2578 C.2     
   5 N5            -2.3847     1.4320     0.3039 N.pl3   
   6 C6            -1.2279     2.1687     0.2992 C.2     
   7 C7            -3.4232     2.3248     0.3648 C.2     
   8 C8            -2.8840     3.5619     0.3891 C.2     
   9 N9            -1.5523     3.4480     0.3496 N.2     
  10 C10            1.3246    -0.6804     0.1201 C.ar    
  11 C11            1.7008    -1.5118     1.1752 C.ar    
  12 C12            2.8874    -2.2171     1.1176 C.ar    
  13 C13            3.7068    -2.1052     0.0037 C.ar    
  14 C14            3.3322    -1.2703    -1.0519 C.ar    
  15 C15            2.1517    -0.5678    -1.0003 C.ar    
  16 C16           -4.8917     1.9881     0.3980 C.3     
  17 C17            3.2603    -3.0898     2.2895 C.3     
  18 C18            4.3627    -4.0669     1.8748 C.3     
  19 O19            5.3693    -3.3275     1.1715 O.3     
  20 N20            4.9027    -2.8091    -0.1114 N.3     
  21 C21            5.9370    -1.9882    -0.7551 C.3     
  22 C22            1.2905     2.2068     0.2167 C.1     
  23 N23            2.2668     2.7875     0.2057 N.1     
  24 C24           -5.4599     2.0442    -1.0215 C.3     
  25 F25           -4.7879     1.1210    -1.8297 F       
  26 F26           -6.8232     1.7316    -0.9907 F       
  27 F27           -5.2883     3.3314    -1.5419 F       
  28 H28           -1.1947    -1.6866     0.1651 H       
  29 H29           -3.2715    -0.4841     0.2674 H       
  30 H30           -3.4360     4.4890     0.4364 H       
  31 H31            1.0619    -1.6042     2.0410 H       
  32 H32            3.9727    -1.1794    -1.9167 H       
  33 H33            1.8682     0.0757    -1.8201 H       
  34 H34           -5.0254     0.9852     0.8035 H       
  35 H35           -5.4153     2.7074     1.0277 H       
  36 H36            3.6185    -2.4648     3.1076 H       
  37 H37            2.3845    -3.6494     2.6182 H       
  38 H38            4.7972    -4.5296     2.7609 H       
  39 H39            3.9475    -4.8356     1.2230 H       
  40 H40            6.8675    -2.5532    -0.8096 H       
  41 H41            5.6146    -1.7211    -1.7615 H       
  42 H42            6.0961    -1.0813    -0.1719 H       
@<TRIPOS>BOND
   1    1    2 2
   2    1   22 1
   3    1    6 1
   4    2    3 1
   5    2   10 1
   6    3    4 2
   7    3   28 1
   8    4    5 1
   9    4   29 1
  10    5    6 1
  11    5    7 1
  12    6    9 2
  13    7    8 2
  14    7   16 1
  15    8    9 1
  16    8   30 1
  17   10   11 ar
  18   10   15 ar
  19   11   12 ar
  20   11   31 1
  21   12   13 ar
  22   12   17 1
  23   13   14 ar
  24   13   20 1
  25   14   15 ar
  26   14   32 1
  27   15   33 1
  28   16   24 1
  29   16   34 1
  30   16   35 1
  31   17   18 1
  32   17   36 1
  33   17   37 1
  34   18   19 1
  35   18   38 1
  36   18   39 1
  37   19   20 1
  38   20   21 1
  39   21   40 1
  40   21   41 1
  41   21   42 1
  42   22   23 3
  43   24   25 1
  44   24   26 1
  45   24   27 1

#	End of record

