#	Name: ASD02508164
#	Creating user name:	WinNT
#	Creation time:	15. 06. 2019 20:23

#	Modifying user name:	WinNT
#	Modification time:	15. 06. 2019 20:23

#	Program:	/corina/corina34_cracker 3.40 0067  02.08.2006

@<TRIPOS>MOLECULE
ASD02508164
  32   34    0    0    0
SMALL
NO_CHARGES


@<TRIPOS>ATOM
   1 C1             0.8375     1.5700    -1.0868 C.ar    
   2 C2             0.7034     0.1986    -0.7959 C.ar    
   3 C3             2.0805     2.1547    -0.9948 C.ar    
   4 C4             3.1819     1.3643    -0.6132 C.ar    
   5 C5             3.0363     0.0285    -0.3333 C.ar    
   6 C6             1.7857    -0.5593    -0.4245 C.ar    
   7 S7            -0.4487     2.6689    -1.5663 S.3     
   8 C8             0.4238     4.1760    -1.7577 C.2     
   9 S9             2.1077     3.8692    -1.3841 S.3     
  10 S10            4.4340    -0.9338     0.1410 S.o2    
  11 N11            4.0965    -1.5912     1.6230 N.am    
  12 C12            4.2704    -0.8275     2.7836 C.ar    
  13 O13           -0.0549     5.2457    -2.0878 O.2     
  14 O14            4.5027    -2.0195    -0.7733 O.2     
  15 O15            5.5020    -0.0183     0.3419 O.2     
  16 C16            4.4608    -1.4555     4.0089 C.ar    
  17 C17            4.2587     0.5606     2.7126 C.ar    
  18 C18            4.4308     1.3116     3.8615 C.ar    
  19 C19            4.6142     0.6831     5.0794 C.ar    
  20 C20            4.6322    -0.6976     5.1533 C.ar    
  21 C21            1.6144    -2.0252    -0.1196 C.3     
  22 F22            4.4780    -2.8044     4.0821 F       
  23 F23            4.0800     1.1755     1.5230 F       
  24 H24           -0.2694    -0.2653    -0.8661 H       
  25 H25            4.1594     1.8177    -0.5398 H       
  26 H26            3.7783    -2.5053     1.6870 H       
  27 H27            4.4222     2.3902     3.8070 H       
  28 H28            4.7487     1.2722     5.9746 H       
  29 H29            4.7757    -1.1848     6.1064 H       
  30 H30            1.5390    -2.1656     0.9587 H       
  31 H31            0.7064    -2.3921    -0.5981 H       
  32 H32            2.4738    -2.5780    -0.4987 H       
@<TRIPOS>BOND
   1    1    2 ar
   2    1    3 ar
   3    1    7 1
   4    2    6 ar
   5    2   24 1
   6    3    4 ar
   7    3    9 1
   8    4    5 ar
   9    4   25 1
  10    5    6 ar
  11    5   10 1
  12    6   21 1
  13    7    8 1
  14    8    9 1
  15    8   13 2
  16   10   11 am
  17   10   14 2
  18   10   15 2
  19   11   12 1
  20   11   26 1
  21   12   16 ar
  22   12   17 ar
  23   16   22 1
  24   16   20 ar
  25   17   18 ar
  26   17   23 1
  27   18   19 ar
  28   18   27 1
  29   19   20 ar
  30   19   28 1
  31   20   29 1
  32   21   30 1
  33   21   31 1
  34   21   32 1

#	End of record

