#	Name: ASD04882456
#	Creating user name:	WinNT
#	Creation time:	15. 06. 2019 20:54

#	Modifying user name:	WinNT
#	Modification time:	15. 06. 2019 20:54

#	Program:	/corina/corina34_cracker 3.40 0067  02.08.2006

@<TRIPOS>MOLECULE
ASD04882456
  70   73    0    0    0
SMALL
NO_CHARGES


@<TRIPOS>ATOM
   1 C1            -0.0214     1.4009    -0.0088 C.ar    
   2 C2            -0.0112     0.0034    -0.0056 C.ar    
   3 C3            -1.2090    -0.7024    -0.0163 C.ar    
   4 C4            -2.4093    -0.0275    -0.0300 C.ar    
   5 C5            -2.4265     1.3701    -0.0333 C.ar    
   6 C6            -1.2238     2.0820    -0.0168 C.ar    
   7 N7             1.2002    -0.6830     0.0078 N.3     
   8 C8             1.3085    -1.5368     1.1990 C.3     
   9 C9             1.3718    -1.4723    -1.2198 C.3     
  10 C10            2.7458    -2.1463    -1.2018 C.3     
  11 N11            2.8541    -3.0002    -0.0107 N.3     
  12 C12            2.6825    -2.2108     1.2170 C.3     
  13 C13           -3.7125     2.0930    -0.0484 C.2     
  14 O14           -3.7265     3.3088    -0.0512 O.2     
  15 N15           -4.8718     1.4056    -0.0592 N.am    
  16 N16            1.1871     2.1111     0.0021 N.am    
  17 C17            4.0693    -3.6887     0.0028 C.ar    
  18 C18            4.0823    -5.0776     0.0059 C.ar    
  19 C19            5.2857    -5.7554     0.0188 C.ar    
  20 C20            6.4765    -5.0528     0.0289 C.ar    
  21 C21            6.4672    -3.6698     0.0258 C.ar    
  22 C22            5.2677    -2.9860     0.0072 C.ar    
  23 C23            2.7849    -5.8441    -0.0041 C.3     
  24 C24           -6.1488     2.1234    -0.0742 C.3     
  25 C25           -7.3001     1.1158    -0.0842 C.3     
  26 C26           -8.6338     1.8655    -0.0999 C.3     
  27 N27           -9.7362     0.9007    -0.1095 N.am    
  28 C28          -10.3721     0.3579     1.0968 C.3     
  29 C29          -11.1398    -0.8981     0.6284 C.3     
  30 C30          -11.3959    -0.5737    -0.8617 C.3     
  31 C31          -10.2990     0.4031    -1.2242 C.2     
  32 O32           -9.9704     0.6899    -2.3558 O.2     
  33 C33            1.2302     3.3601     0.5068 C.2     
  34 O34            0.2102     3.8972     0.8843 O.2     
  35 F35            2.3366     5.3579     1.1537 F       
  36 F36            3.4223     3.3651     1.4169 F       
  37 C37            2.5455     4.0893     0.6020 C.3     
  38 F38            3.0988     4.2220    -0.6760 F       
  39 H39           -1.1980    -1.7823    -0.0142 H       
  40 H40           -3.3381    -0.5785    -0.0387 H       
  41 H41           -1.2340     3.1619    -0.0192 H       
  42 H42            1.1905    -0.9276     2.0951 H       
  43 H43            0.5298    -2.2991     1.1720 H       
  44 H44            0.5939    -2.2339    -1.2743 H       
  45 H45            1.3000    -0.8160    -2.0871 H       
  46 H46            2.8638    -2.7556    -2.0979 H       
  47 H47            3.5245    -1.3840    -1.1749 H       
  48 H48            3.4604    -1.4493     1.2714 H       
  49 H49            2.7542    -2.8671     2.0843 H       
  50 H50           -4.8606     0.4357    -0.0569 H       
  51 H51            1.9923     1.7038    -0.3537 H       
  52 H52            5.2966    -6.8353     0.0212 H       
  53 H53            7.4161    -5.5853     0.0397 H       
  54 H54            7.3992    -3.1241     0.0341 H       
  55 H55            5.2611    -1.9060     0.0044 H       
  56 H56            2.4813    -6.0312    -1.0342 H       
  57 H57            2.9201    -6.7941     0.5130 H       
  58 H58            2.0147    -5.2616     0.5015 H       
  59 H59           -6.2232     2.7513     0.8136 H       
  60 H60           -6.2044     2.7474    -0.9662 H       
  61 H61           -7.2258     0.4879    -0.9721 H       
  62 H62           -7.2446     0.4918     0.8078 H       
  63 H63           -8.7082     2.4934     0.7880 H       
  64 H64           -8.6894     2.4895    -0.9919 H       
  65 H65           -9.6152     0.0850     1.8320 H       
  66 H66          -11.0637     1.0870     1.5191 H       
  67 H67          -10.5253    -1.7924     0.7329 H       
  68 H68          -12.0789    -1.0063     1.1710 H       
  69 H69          -11.3214    -1.4771    -1.4670 H       
  70 H70          -12.3733    -0.1081    -0.9882 H       
@<TRIPOS>BOND
   1    1    2 ar
   2    1   16 1
   3    1    6 ar
   4    2    3 ar
   5    2    7 1
   6    3    4 ar
   7    3   39 1
   8    4    5 ar
   9    4   40 1
  10    5    6 ar
  11    5   13 1
  12    6   41 1
  13    7    8 1
  14    7    9 1
  15    8   12 1
  16    8   42 1
  17    8   43 1
  18    9   10 1
  19    9   44 1
  20    9   45 1
  21   10   11 1
  22   10   46 1
  23   10   47 1
  24   11   12 1
  25   11   17 1
  26   12   48 1
  27   12   49 1
  28   13   14 2
  29   13   15 am
  30   15   24 1
  31   15   50 1
  32   16   33 am
  33   16   51 1
  34   17   18 ar
  35   17   22 ar
  36   18   19 ar
  37   18   23 1
  38   19   20 ar
  39   19   52 1
  40   20   21 ar
  41   20   53 1
  42   21   22 ar
  43   21   54 1
  44   22   55 1
  45   23   56 1
  46   23   57 1
  47   23   58 1
  48   24   25 1
  49   24   59 1
  50   24   60 1
  51   25   26 1
  52   25   61 1
  53   25   62 1
  54   26   27 1
  55   26   63 1
  56   26   64 1
  57   27   28 1
  58   27   31 am
  59   28   29 1
  60   28   65 1
  61   28   66 1
  62   29   30 1
  63   29   67 1
  64   29   68 1
  65   30   31 1
  66   30   69 1
  67   30   70 1
  68   31   32 2
  69   33   37 1
  70   33   34 2
  71   35   37 1
  72   36   37 1
  73   37   38 1

#	End of record

