#	Name: ASD08150918
#	Creating user name:	WinNT
#	Creation time:	15. 06. 2019 21:16

#	Modifying user name:	WinNT
#	Modification time:	15. 06. 2019 21:16

#	Program:	/corina/corina34_cracker 3.40 0067  02.08.2006

@<TRIPOS>MOLECULE
ASD08150918
  53   57    0    0    0
SMALL
NO_CHARGES


@<TRIPOS>ATOM
   1 N1            -0.1981     1.2255    -0.0588 N.3     
   2 C2            -0.3045    -0.2291    -0.2301 C.3     
   3 C3             0.2828    -0.9327     0.9955 C.3     
   4 C4             1.7498    -0.5251     1.1578 C.3     
   5 C5             1.8369     0.9983     1.2857 C.3     
   6 C6             1.2046     1.6459     0.0517 C.3     
   7 O7             2.2875    -1.1345     2.3332 O.3     
   8 C8            -0.8413     1.8991    -1.0962 C.ar    
   9 C9            -1.9146     2.7224    -0.8306 C.ar    
  10 C10           -2.5639     3.3994    -1.8585 C.ar    
  11 C11           -2.1583     3.2687    -3.1527 C.ar    
  12 C12           -1.0674     2.4389    -3.4658 C.ar    
  13 C13           -0.6271     2.2844    -4.7917 C.ar    
  14 C14            0.4321     1.4727    -5.0594 C.ar    
  15 C15            1.0892     0.7905    -4.0373 C.ar    
  16 C16            0.6898     0.9161    -2.7417 C.ar    
  17 C17           -0.3956     1.7486    -2.4268 C.ar    
  18 C18           -2.3907     2.8907     0.5893 C.3     
  19 C19           -1.6142     4.0280     1.2561 C.3     
  20 N20           -3.8206     3.2094     0.5904 N.pl3   
  21 N21           -6.8342     3.7651     0.8350 N.2     
  22 C22           -8.0279     3.7837     1.3531 C.2     
  23 N23           -8.0116     3.1924     2.5814 N.pl3   
  24 C24           -6.7237     2.7879     2.8261 C.ar    
  25 N25           -6.1086     2.1702     3.8292 N.ar    
  26 C26           -4.8193     1.9113     3.7680 C.ar    
  27 N27           -4.0780     2.2445     2.7274 N.ar    
  28 C28           -4.6055     2.8648     1.6769 C.ar    
  29 C29           -5.9785     3.1626     1.6951 C.ar    
  30 Cl30          -2.9882     4.1255    -4.4140 Cl      
  31 H31           -1.3530    -0.5060    -0.3402 H       
  32 H32            0.2462    -0.5312    -1.1209 H       
  33 H33           -0.2763    -0.6417     1.8849 H       
  34 H34            0.2178    -2.0124     0.8612 H       
  35 H35            2.3169    -0.8505     0.2857 H       
  36 H36            1.3023     1.3196     2.1796 H       
  37 H37            2.8823     1.2981     1.3587 H       
  38 H38            1.7483     1.3350    -0.8405 H       
  39 H39            1.2522     2.7307     0.1462 H       
  40 H40            3.2156    -0.9191     2.4984 H       
  41 H41           -3.4030     4.0385    -1.6266 H       
  42 H42           -1.1271     2.8067    -5.5939 H       
  43 H43            0.7681     1.3555    -6.0791 H       
  44 H44            1.9272     0.1525    -4.2764 H       
  45 H45            1.2079     0.3809    -1.9598 H       
  46 H46           -2.2243     1.9652     1.1405 H       
  47 H47           -1.9585     4.1497     2.2831 H       
  48 H48           -0.5503     3.7909     1.2553 H       
  49 H49           -1.7806     4.9535     0.7050 H       
  50 H50           -4.2172     3.6619    -0.1703 H       
  51 H51           -8.9022     4.2058     0.8802 H       
  52 H52           -8.7712     3.0789     3.1738 H       
  53 H53           -4.3502     1.4079     4.6005 H       
@<TRIPOS>BOND
   1    1    2 1
   2    1    6 1
   3    1    8 1
   4    2    3 1
   5    2   31 1
   6    2   32 1
   7    3    4 1
   8    3   33 1
   9    3   34 1
  10    4    5 1
  11    4    7 1
  12    4   35 1
  13    5    6 1
  14    5   36 1
  15    5   37 1
  16    6   38 1
  17    6   39 1
  18    7   40 1
  19    8    9 ar
  20    8   17 ar
  21    9   10 ar
  22    9   18 1
  23   10   11 ar
  24   10   41 1
  25   11   12 ar
  26   11   30 1
  27   12   13 ar
  28   12   17 ar
  29   13   14 ar
  30   13   42 1
  31   14   15 ar
  32   14   43 1
  33   15   16 ar
  34   15   44 1
  35   16   17 ar
  36   16   45 1
  37   18   19 1
  38   18   20 1
  39   18   46 1
  40   19   47 1
  41   19   48 1
  42   19   49 1
  43   20   28 1
  44   20   50 1
  45   21   22 2
  46   21   29 1
  47   22   23 1
  48   22   51 1
  49   23   24 1
  50   23   52 1
  51   24   25 ar
  52   24   29 ar
  53   25   26 ar
  54   26   27 ar
  55   26   53 1
  56   27   28 ar
  57   28   29 ar

#	End of record

