#	Name: ASD00450006
#	Creating user name:	WinNT
#	Creation time:	15. 06. 2019 18:35

#	Modifying user name:	WinNT
#	Modification time:	15. 06. 2019 18:35

#	Program:	/corina/corina34_cracker 3.40 0067  02.08.2006

@<TRIPOS>MOLECULE
ASD00450006
  62   66    0    0    0
SMALL
NO_CHARGES


@<TRIPOS>ATOM
   1 C1             0.1131     1.4697    -0.0661 C.2     
   2 N2             0.1742     0.3754    -0.8704 N.am    
   3 C3             1.3517    -0.2563    -1.0855 C.2     
   4 C4             2.5437     0.2884    -0.4185 C.ar    
   5 C5             2.3839     1.4294     0.3991 C.ar    
   6 N6             1.1477     1.9725     0.5352 N.2     
   7 C7             3.8024    -0.2875    -0.5736 C.ar    
   8 C8             4.8884     0.2699     0.0803 C.ar    
   9 C9             4.7246     1.3966     0.8863 C.ar    
  10 C10            3.4964     1.9711     1.0470 C.ar    
  11 N11            6.1562    -0.3002    -0.0678 N.pl3   
  12 C12            7.2781     0.5195    -0.2122 C.ar    
  13 C13            7.1217     1.8889    -0.3742 C.ar    
  14 C14            8.2389     2.6996    -0.5174 C.ar    
  15 C15            9.5097     2.1384    -0.4981 C.ar    
  16 C16            9.6621     0.7745    -0.3366 C.ar    
  17 C17            8.5527    -0.0347    -0.1881 C.ar    
  18 C18            8.7237    -1.5216    -0.0122 C.3     
  19 N19            8.0857     4.0799    -0.6813 N.am    
  20 C20            8.9735     4.9273    -0.1244 C.2     
  21 C21            8.7790     6.3797    -0.2453 C.2     
  22 O22            9.9358     4.4905     0.4785 O.2     
  23 N23            7.7627     7.0008    -0.8813 N.2     
  24 C24            7.9144     8.2896    -0.7850 C.2     
  25 N25            9.0422     8.5630    -0.0783 N.pl3   
  26 C26            9.6034     7.3667     0.2786 C.2     
  27 C27           10.8419     7.1659     1.0576 C.ar    
  28 C28           11.0755     7.9194     2.2096 C.ar    
  29 C29           12.2340     7.7274     2.9338 C.ar    
  30 C30           13.1646     6.7910     2.5215 C.ar    
  31 C31           12.9403     6.0388     1.3790 C.ar    
  32 C32           11.7815     6.2176     0.6483 C.ar    
  33 C33           -1.0454    -0.1248    -1.5096 C.3     
  34 O34            1.4213    -1.2374    -1.8028 O.2     
  35 C35           14.4281     6.5878     3.3174 C.3     
  36 F36           13.8538     5.1260     0.9823 F       
  37 C37            6.9824     9.3205    -1.3678 C.3     
  38 F38            5.7743     8.7101    -1.7216 F       
  39 F39            6.7397    10.3194    -0.4187 F       
  40 F40            7.5678     9.8892    -2.5040 F       
  41 H41           -0.8447     1.9479     0.0763 H       
  42 H42            3.9300    -1.1601    -1.1971 H       
  43 H43            5.5809     1.8200     1.3903 H       
  44 H44            3.3853     2.8434     1.6740 H       
  45 H45            6.2569    -1.2650    -0.0703 H       
  46 H46            6.1328     2.3227    -0.3892 H       
  47 H47           10.3795     2.7689    -0.6098 H       
  48 H48           10.6512     0.3409    -0.3220 H       
  49 H49            8.8096    -1.7544     1.0492 H       
  50 H50            7.8592    -2.0386    -0.4287 H       
  51 H51            9.6259    -1.8474    -0.5298 H       
  52 H52            7.3405     4.4275    -1.1959 H       
  53 H53            9.3849     9.4446     0.1369 H       
  54 H54           10.3506     8.6517     2.5331 H       
  55 H55           12.4149     8.3101     3.8250 H       
  56 H56           11.6068     5.6312    -0.2417 H       
  57 H57           -1.8892     0.5033    -1.2240 H       
  58 H58           -0.9243    -0.1002    -2.5926 H       
  59 H59           -1.2301    -1.1497    -1.1878 H       
  60 H60           14.2613     5.8216     4.0744 H       
  61 H61           15.2305     6.2716     2.6509 H       
  62 H62           14.7062     7.5234     3.8025 H       
@<TRIPOS>BOND
   1    1    2 1
   2    1    6 2
   3    1   41 1
   4    2    3 am
   5    2   33 1
   6    3    4 1
   7    3   34 2
   8    4    5 ar
   9    4    7 ar
  10    5    6 1
  11    5   10 ar
  12    7    8 ar
  13    7   42 1
  14    8    9 ar
  15    8   11 1
  16    9   10 ar
  17    9   43 1
  18   10   44 1
  19   11   12 1
  20   11   45 1
  21   12   13 ar
  22   12   17 ar
  23   13   14 ar
  24   13   46 1
  25   14   15 ar
  26   14   19 1
  27   15   16 ar
  28   15   47 1
  29   16   17 ar
  30   16   48 1
  31   17   18 1
  32   18   49 1
  33   18   50 1
  34   18   51 1
  35   19   20 am
  36   19   52 1
  37   20   21 1
  38   20   22 2
  39   21   23 1
  40   21   26 2
  41   23   24 2
  42   24   25 1
  43   24   37 1
  44   25   26 1
  45   25   53 1
  46   26   27 1
  47   27   28 ar
  48   27   32 ar
  49   28   29 ar
  50   28   54 1
  51   29   30 ar
  52   29   55 1
  53   30   31 ar
  54   30   35 1
  55   31   32 ar
  56   31   36 1
  57   32   56 1
  58   33   57 1
  59   33   58 1
  60   33   59 1
  61   35   60 1
  62   35   61 1
  63   35   62 1
  64   37   38 1
  65   37   39 1
  66   37   40 1

#	End of record

