#	Name: ASD02508049
#	Creating user name:	WinNT
#	Creation time:	15. 06. 2019 20:23

#	Modifying user name:	WinNT
#	Modification time:	15. 06. 2019 20:23

#	Program:	/corina/corina34_cracker 3.40 0067  02.08.2006

@<TRIPOS>MOLECULE
ASD02508049
  30   32    0    0    0
SMALL
NO_CHARGES


@<TRIPOS>ATOM
   1 C1            -0.0117     1.3909    -0.0075 C.ar    
   2 C2             0.0073     0.0101     0.1091 C.ar    
   3 C3             1.1825     2.1003    -0.1344 C.ar    
   4 C4             2.3898     1.4204    -0.1437 C.ar    
   5 C5             2.4055     0.0383    -0.0268 C.ar    
   6 C6             1.2127    -0.6656     0.0996 C.ar    
   7 N7            -1.0409     2.3353    -0.0363 N.am    
   8 C8            -0.4716     3.5498    -0.1682 C.2     
   9 O9             0.8624     3.4144    -0.2286 O.3     
  10 N10            3.6245    -0.6495    -0.0361 N.am    
  11 S11            4.9610     0.0248     0.6719 S.o2    
  12 C12            4.5822     0.2680     2.3754 C.ar    
  13 C13            4.8532    -0.7299     3.2929 C.ar    
  14 O14           -1.0736     4.6047    -0.2279 O.2     
  15 O15            5.9815    -0.9630     0.6248 O.2     
  16 O16            5.1057     1.3194     0.1042 O.2     
  17 Cl17           1.2381    -2.3953     0.2450 Cl      
  18 C18            4.0195     1.4587     2.7950 C.ar    
  19 C19            3.7228     1.6506     4.1317 C.ar    
  20 C20            3.9888     0.6519     5.0491 C.ar    
  21 C21            4.5561    -0.5387     4.6303 C.ar    
  22 Cl22           4.8900    -1.7940     5.7821 Cl      
  23 H23           -0.9186    -0.5371     0.2076 H       
  24 H24            3.3170     1.9655    -0.2421 H       
  25 H25           -1.9911     2.1507     0.0265 H       
  26 H26            3.6864    -1.5212    -0.4572 H       
  27 H27            5.2963    -1.6588     2.9655 H       
  28 H28            3.8118     2.2396     2.0785 H       
  29 H29            3.2835     2.5813     4.4590 H       
  30 H30            3.7577     0.8022     6.0933 H       
@<TRIPOS>BOND
   1    1    2 ar
   2    1    3 ar
   3    1    7 1
   4    2    6 ar
   5    2   23 1
   6    3    4 ar
   7    3    9 1
   8    4    5 ar
   9    4   24 1
  10    5    6 ar
  11    5   10 1
  12    6   17 1
  13    7    8 am
  14    7   25 1
  15    8    9 1
  16    8   14 2
  17   10   11 am
  18   10   26 1
  19   11   12 1
  20   11   15 2
  21   11   16 2
  22   12   13 ar
  23   12   18 ar
  24   13   21 ar
  25   13   27 1
  26   18   19 ar
  27   18   28 1
  28   19   20 ar
  29   19   29 1
  30   20   21 ar
  31   20   30 1
  32   21   22 1

#	End of record

