#	Name: ASD01812497
#	Creating user name:	WinNT
#	Creation time:	15. 06. 2019 19:28

#	Modifying user name:	WinNT
#	Modification time:	15. 06. 2019 19:28

#	Program:	/corina/corina34_cracker 3.40 0067  02.08.2006

@<TRIPOS>MOLECULE
ASD01812497
  49   53    0    0    0
SMALL
NO_CHARGES


@<TRIPOS>ATOM
   1 C1            -0.0179     1.4559     0.0032 C.ar    
   2 C2             0.0019    -0.0040    -0.0082 C.ar    
   3 C3            -1.2293    -0.7014     0.0534 C.ar    
   4 C4            -2.4412     0.0171     0.1245 C.ar    
   5 C5            -2.4530     1.3713     0.1348 C.ar    
   6 C6            -1.2609     2.1106     0.0806 C.ar    
   7 C7            -1.2207    -2.1046     0.0430 C.ar    
   8 C8            -0.0350    -2.7734    -0.0258 C.ar    
   9 C9             1.1725    -2.0852    -0.0858 C.ar    
  10 C10            1.2006    -0.7210    -0.0776 C.ar    
  11 N11            1.1097     2.1841    -0.0521 N.2     
  12 C12            1.0855     3.4850    -0.0411 C.2     
  13 N13           -0.0647     4.2046     0.0267 N.am    
  14 C14           -1.2629     3.5787     0.0911 C.2     
  15 C15           -3.7453    -0.7352     0.1897 C.3     
  16 C16           -4.0417    -1.1038     1.6206 C.ar    
  17 C17           -3.5883    -2.2996     2.1414 C.ar    
  18 C18           -4.7683    -0.2424     2.4307 C.ar    
  19 C19           -5.0181    -0.6198     3.7388 C.ar    
  20 C20           -4.5362    -1.8402     4.1938 C.ar    
  21 N21           -3.8427    -2.6320     3.3926 N.ar    
  22 O22           -2.3028     4.2092     0.1565 O.2     
  23 O23           -4.7740    -2.2214     5.4740 O.3     
  24 C24           -4.2520    -3.4877     5.8815 C.3     
  25 C25           -0.0099     5.6040     0.0351 C.ar    
  26 C26            0.5931     7.6524     1.1260 C.ar    
  27 C27            0.5405     6.2723     1.1208 C.ar    
  28 C28           -0.5008     6.3260    -1.0448 C.ar    
  29 C29           -0.4454     7.7060    -1.0335 C.ar    
  30 C30            0.0987     8.3687     0.0515 C.ar    
  31 H31           -3.3974     1.8924     0.1895 H       
  32 H32           -2.1502    -2.6526     0.0897 H       
  33 H33           -0.0329    -3.8534    -0.0336 H       
  34 H34            2.0990    -2.6375    -0.1391 H       
  35 H35            2.1440    -0.1975    -0.1253 H       
  36 H36            2.0238     4.0176    -0.0878 H       
  37 H37           -4.5473    -0.1064    -0.1971 H       
  38 H38           -3.6723    -1.6416    -0.4113 H       
  39 H39           -3.0186    -2.9715     1.5166 H       
  40 H40           -5.1302     0.7010     2.0492 H       
  41 H41           -5.5800     0.0264     4.3969 H       
  42 H42           -3.1674    -3.4854     5.7732 H       
  43 H43           -4.5127    -3.6697     6.9241 H       
  44 H44           -4.6777    -4.2738     5.2579 H       
  45 H45            1.0208     8.1727     1.9703 H       
  46 H46            0.9269     5.7134     1.9603 H       
  47 H47           -0.9252     5.8090    -1.8927 H       
  48 H48           -0.8270     8.2681    -1.8730 H       
  49 H49            0.1406     9.4479     0.0581 H       
@<TRIPOS>BOND
   1    1    2 ar
   2    1   11 1
   3    1    6 ar
   4    2   10 ar
   5    2    3 ar
   6    3    4 ar
   7    3    7 ar
   8    4    5 ar
   9    4   15 1
  10    5    6 ar
  11    5   31 1
  12    6   14 1
  13    7    8 ar
  14    7   32 1
  15    8    9 ar
  16    8   33 1
  17    9   10 ar
  18    9   34 1
  19   10   35 1
  20   11   12 2
  21   12   13 1
  22   12   36 1
  23   13   14 am
  24   13   25 1
  25   14   22 2
  26   15   16 1
  27   15   37 1
  28   15   38 1
  29   16   18 ar
  30   16   17 ar
  31   17   21 ar
  32   17   39 1
  33   18   19 ar
  34   18   40 1
  35   19   20 ar
  36   19   41 1
  37   20   21 ar
  38   20   23 1
  39   23   24 1
  40   24   42 1
  41   24   43 1
  42   24   44 1
  43   25   28 ar
  44   25   27 ar
  45   26   27 ar
  46   26   30 ar
  47   26   45 1
  48   27   46 1
  49   28   29 ar
  50   28   47 1
  51   29   30 ar
  52   29   48 1
  53   30   49 1

#	End of record

