#	Name: ASD02198869
#	Creating user name:	WinNT
#	Creation time:	15. 06. 2019 20:20

#	Modifying user name:	WinNT
#	Modification time:	15. 06. 2019 20:20

#	Program:	/corina/corina34_cracker 3.40 0067  02.08.2006

@<TRIPOS>MOLECULE
ASD02198869
  53   57    0    0    0
SMALL
NO_CHARGES


@<TRIPOS>ATOM
   1 C1            -0.0433     1.5017    -0.1150 C.2     
   2 C2            -0.0730     0.1619     0.0975 C.2     
   3 N3             1.0712    -0.5396     0.2598 N.pl3   
   4 N4             2.2357    -0.0048     0.2258 N.2     
   5 C5             2.4071     1.2848     0.0276 C.2     
   6 C6             1.2214     2.1358    -0.1605 C.2     
   7 C7             0.9798    -1.9188     0.4763 C.ar    
   8 C8             1.5816    -2.4907     1.5965 C.ar    
   9 C9             1.4892    -3.8562     1.8078 C.ar    
  10 C10            0.7981    -4.6520     0.9047 C.ar    
  11 C11            0.1995    -4.0801    -0.2111 C.ar    
  12 C12            0.2846    -2.7187    -0.4212 C.ar    
  13 C13            3.7640     1.8672    -0.0051 C.2     
  14 N14            4.3058     2.6074    -1.0182 N.pl3   
  15 N15            5.6076     2.9594    -0.6403 N.2     
  16 C16            5.8514     2.4600     0.5451 C.2     
  17 C17            4.7198     1.7717     0.9825 C.2     
  18 C18            3.6728     2.9518    -2.2192 C.ar    
  19 C19            3.8063     4.2349    -2.7328 C.ar    
  20 C20            3.1814     4.5721    -3.9178 C.ar    
  21 C21            2.4234     3.6336    -4.5929 C.ar    
  22 C22            2.2880     2.3535    -4.0839 C.ar    
  23 C23            2.9152     2.0090    -2.9016 C.ar    
  24 O24            1.3243     3.3390    -0.3483 O.2     
  25 N25            0.7044    -6.0340     1.1183 N.pl3   
  26 C26            0.0552    -6.9246     0.3075 C.2     
  27 C27            0.1873    -8.1562     0.8436 C.2     
  28 C28            0.9445    -8.0246     2.0274 C.2     
  29 C29            1.2520    -6.7181     2.1691 C.2     
  30 Cl30           1.3347     1.1781    -4.9346 Cl      
  31 F31           -0.3142    -9.3050     0.3396 F       
  32 F32            1.3002    -9.0244     2.8635 F       
  33 C33            7.1398     2.6088     1.3125 C.3     
  34 O34            2.2581    -1.7096     2.4792 O.3     
  35 C35            2.8492    -2.3637     3.6038 C.3     
  36 H36           -0.9547     2.0653    -0.2496 H       
  37 H37           -1.0228    -0.3506     0.1378 H       
  38 H38            1.9548    -4.3017     2.6745 H       
  39 H39           -0.3371    -4.7013    -0.9129 H       
  40 H40           -0.1815    -2.2765    -1.2893 H       
  41 H41            4.6142     1.2518     1.9233 H       
  42 H42            4.3979     4.9690    -2.2060 H       
  43 H43            3.2849     5.5702    -4.3171 H       
  44 H44            1.9356     3.8999    -5.5189 H       
  45 H45            2.8099     1.0101    -2.5047 H       
  46 H46           -0.4723    -6.6837    -0.6035 H       
  47 H47            1.8260    -6.2864     2.9757 H       
  48 H48            7.0916     3.5033     1.9335 H       
  49 H49            7.2886     1.7343     1.9459 H       
  50 H50            7.9713     2.6965     0.6131 H       
  51 H51            2.0720    -2.8584     4.1863 H       
  52 H52            3.5695    -3.1043     3.2562 H       
  53 H53            3.3571    -1.6275     4.2268 H       
@<TRIPOS>BOND
   1    1    2 2
   2    1    6 1
   3    1   36 1
   4    2    3 1
   5    2   37 1
   6    3    4 1
   7    3    7 1
   8    4    5 2
   9    5    6 1
  10    5   13 1
  11    6   24 2
  12    7    8 ar
  13    7   12 ar
  14    8    9 ar
  15    8   34 1
  16    9   10 ar
  17    9   38 1
  18   10   11 ar
  19   10   25 1
  20   11   12 ar
  21   11   39 1
  22   12   40 1
  23   13   14 1
  24   13   17 2
  25   14   15 1
  26   14   18 1
  27   15   16 2
  28   16   17 1
  29   16   33 1
  30   17   41 1
  31   18   19 ar
  32   18   23 ar
  33   19   20 ar
  34   19   42 1
  35   20   21 ar
  36   20   43 1
  37   21   22 ar
  38   21   44 1
  39   22   23 ar
  40   22   30 1
  41   23   45 1
  42   25   26 1
  43   25   29 1
  44   26   27 2
  45   26   46 1
  46   27   28 1
  47   27   31 1
  48   28   29 2
  49   28   32 1
  50   29   47 1
  51   33   48 1
  52   33   49 1
  53   33   50 1
  54   34   35 1
  55   35   51 1
  56   35   52 1
  57   35   53 1

#	End of record

