#	Name: ASD03030005
#	Creating user name:	WinNT
#	Creation time:	15. 06. 2019 20:26

#	Modifying user name:	WinNT
#	Modification time:	15. 06. 2019 20:26

#	Program:	/corina/corina34_cracker 3.40 0067  02.08.2006

@<TRIPOS>MOLECULE
ASD03030005
  40   42    0    0    0
SMALL
NO_CHARGES


@<TRIPOS>ATOM
   1 C1            -0.0925     1.4305     0.0192 C.ar    
   2 C2            -0.0528     0.0285     0.0104 C.ar    
   3 N3            -1.3528    -0.4447     0.0174 N.pl3   
   4 C4            -2.2472     0.6107     0.0306 C.ar    
   5 C5            -1.5175     1.8086     0.0377 C.ar    
   6 C6             1.0927     2.1623     0.0151 C.ar    
   7 C7             2.3035     1.5042     0.0023 C.ar    
   8 C8             2.3447     0.1182    -0.0068 C.ar    
   9 C9             1.1797    -0.6179    -0.0021 C.ar    
  10 C10           -3.6380     0.6605     0.0414 C.ar    
  11 C11           -4.2848     1.8773     0.0533 C.ar    
  12 C12           -3.5618     3.0604     0.0550 C.ar    
  13 C13           -2.1840     3.0317     0.0513 C.ar    
  14 C14           -1.7286    -1.8607     0.0112 C.3     
  15 C15           -1.8483    -2.3628     1.4515 C.3     
  16 O16           -2.9265    -1.6884     2.1030 O.3     
  17 C17           -2.1178    -3.8689     1.4458 C.3     
  18 N18           -2.1167    -4.3718     2.8260 N.3     
  19 C19           -2.7322    -5.7035     2.9016 C.3     
  20 C20           -0.7559    -4.3887     3.3790 C.3     
  21 H21            1.0629     3.2419     0.0215 H       
  22 H22            3.2234     2.0699    -0.0009 H       
  23 H23            3.2982    -0.3888    -0.0171 H       
  24 H24            1.2231    -1.6970    -0.0092 H       
  25 H25           -4.2108    -0.2551     0.0402 H       
  26 H26           -5.3643     1.9096     0.0610 H       
  27 H27           -4.0802     4.0078     0.0643 H       
  28 H28           -1.6229     3.9545     0.0526 H       
  29 H29           -2.6859    -1.9803    -0.4960 H       
  30 H30           -0.9655    -2.4368    -0.5122 H       
  31 H31           -0.9190    -2.1621     1.9847 H       
  32 H32           -3.7865    -1.8227     1.6816 H       
  33 H33           -3.0885    -4.0625     0.9893 H       
  34 H34           -1.3400    -4.3750     0.8740 H       
  35 H35           -2.2269    -6.3771     2.2095 H       
  36 H36           -2.6398    -6.0894     3.9168 H       
  37 H37           -3.7866    -5.6321     2.6346 H       
  38 H38           -0.3496    -3.3772     3.3753 H       
  39 H39           -0.7839    -4.7652     4.4016 H       
  40 H40           -0.1244    -5.0361     2.7706 H       
@<TRIPOS>BOND
   1    1    2 ar
   2    1    6 ar
   3    1    5 1
   4    2    3 1
   5    2    9 ar
   6    3    4 1
   7    3   14 1
   8    4    5 ar
   9    4   10 ar
  10    5   13 ar
  11    6    7 ar
  12    6   21 1
  13    7    8 ar
  14    7   22 1
  15    8    9 ar
  16    8   23 1
  17    9   24 1
  18   10   11 ar
  19   10   25 1
  20   11   12 ar
  21   11   26 1
  22   12   13 ar
  23   12   27 1
  24   13   28 1
  25   14   15 1
  26   14   29 1
  27   14   30 1
  28   15   16 1
  29   15   17 1
  30   15   31 1
  31   16   32 1
  32   17   18 1
  33   17   33 1
  34   17   34 1
  35   18   19 1
  36   18   20 1
  37   19   35 1
  38   19   36 1
  39   19   37 1
  40   20   38 1
  41   20   39 1
  42   20   40 1

#	End of record

