#	Name: ASD03240428
#	Creating user name:	WinNT
#	Creation time:	15. 06. 2019 20:34

#	Modifying user name:	WinNT
#	Modification time:	15. 06. 2019 20:34

#	Program:	/corina/corina34_cracker 3.40 0067  02.08.2006

@<TRIPOS>MOLECULE
ASD03240428
  31   32    0    0    0
SMALL
NO_CHARGES


@<TRIPOS>ATOM
   1 C1            -0.0157     1.3879     0.1332 C.ar    
   2 C2            -1.0124     1.5507    -0.8109 C.ar    
   3 C3             1.4972     4.3502    -1.1697 C.ar    
   4 C4             0.9847     3.6229    -0.1117 C.ar    
   5 C5             1.2782     2.1491     0.0014 C.3     
   6 C6             1.2288     5.7021    -1.2738 C.ar    
   7 C7             0.4470     6.3273    -0.3188 C.ar    
   8 C8            -0.0657     5.5988     0.7398 C.ar    
   9 C9             0.2034     4.2471     0.8428 C.ar    
  10 Cl10           0.1098     8.0253    -0.4485 Cl      
  11 C11           -2.1995     0.8532    -0.6903 C.ar    
  12 C12           -2.3902    -0.0081     0.3755 C.ar    
  13 C13           -1.3924    -0.1707     1.3200 C.ar    
  14 C14           -0.2078     0.5314     1.2012 C.ar    
  15 Cl15          -3.8812    -0.8842     0.5279 Cl      
  16 C16            2.1471     1.8953     1.2349 C.3     
  17 C17            2.0098     1.6864    -1.2322 C.2     
  18 O18            3.1130     1.2033    -1.1348 O.2     
  19 O19            1.4359     1.8111    -2.4392 O.3     
  20 H20           -0.8635     2.2233    -1.6426 H       
  21 H21            2.1112     3.8630    -1.9127 H       
  22 H22            1.6295     6.2703    -2.1002 H       
  23 H23           -0.6761     6.0863     1.4856 H       
  24 H24           -0.1970     3.6782     1.6689 H       
  25 H25           -2.9782     0.9807    -1.4277 H       
  26 H26           -1.5409    -0.8426     2.1524 H       
  27 H27            0.5714     0.4043     1.9382 H       
  28 H28            1.6180     2.2299     2.1271 H       
  29 H29            2.3594     0.8293     1.3167 H       
  30 H30            3.0830     2.4459     1.1396 H       
  31 H31            1.9438     1.5002    -3.2011 H       
@<TRIPOS>BOND
   1    1    2 ar
   2    1    5 1
   3    1   14 ar
   4    2   11 ar
   5    2   20 1
   6    3    4 ar
   7    3    6 ar
   8    3   21 1
   9    4    5 1
  10    4    9 ar
  11    5   17 1
  12    5   16 1
  13    6    7 ar
  14    6   22 1
  15    7    8 ar
  16    7   10 1
  17    8    9 ar
  18    8   23 1
  19    9   24 1
  20   11   12 ar
  21   11   25 1
  22   12   13 ar
  23   12   15 1
  24   13   14 ar
  25   13   26 1
  26   14   27 1
  27   16   28 1
  28   16   29 1
  29   16   30 1
  30   17   18 2
  31   17   19 1
  32   19   31 1

#	End of record

