#	Name: ASD01411287
#	Creating user name:	WinNT
#	Creation time:	15. 06. 2019 19:19

#	Modifying user name:	WinNT
#	Modification time:	15. 06. 2019 19:19

#	Program:	/corina/corina34_cracker 3.40 0067  02.08.2006

@<TRIPOS>MOLECULE
ASD01411287
  68   72    0    0    0
SMALL
NO_CHARGES


@<TRIPOS>ATOM
   1 C1            -0.0170     1.4058     0.0098 C.ar    
   2 C2             0.0021    -0.0041     0.0020 C.ar    
   3 C3            -1.2043    -0.7182     0.0491 C.ar    
   4 C4            -2.3950    -0.0532     0.0499 C.ar    
   5 C5            -2.4193     1.3446     0.0009 C.ar    
   6 C6            -1.2279     2.0744     0.0098 C.ar    
   7 N7             1.2958     1.8361    -0.0005 N.pl3   
   8 C8             2.1195     0.7370    -0.0662 C.2     
   9 C9             1.3625    -0.3908    -0.0633 C.2     
  10 C10            1.7364     3.2312     0.0597 C.3     
  11 C11            0.9889     4.0490    -0.9614 C.2     
  12 N12            1.1123     5.4145    -0.9223 N.am    
  13 O13            0.2946     3.5124    -1.7986 O.2     
  14 C14            0.3558     6.1249    -1.9836 C.3     
  15 C15           -2.1444     6.1274    -2.0012 C.3     
  16 C16           -3.6938     2.0912    -0.1005 C.2     
  17 O17           -4.7715     1.5296    -0.1436 O.2     
  18 N18           -3.5798     3.4575    -0.1421 N.am    
  19 C19           -3.3631     6.3824    -1.1131 C.3     
  20 N20           -4.4757     5.5135    -1.5623 N.am    
  21 S21           -4.9611     4.3251    -0.4877 S.o2    
  22 C22            3.5961     0.7765    -0.1308 C.2     
  23 C23            1.8798    -1.8052    -0.1192 C.3     
  24 C24            1.4287    -2.5629     1.1311 C.3     
  25 C25            1.9539    -3.9989     1.0744 C.3     
  26 C26            1.4014    -4.6951    -0.1710 C.3     
  27 C27            1.8525    -3.9373    -1.4213 C.3     
  28 C28            1.3273    -2.5014    -1.3646 C.3     
  29 C29            4.4704     0.0072     0.5734 C.2     
  30 O30           -5.8229     3.4525    -1.2053 O.2     
  31 O31           -5.3381     4.9878     0.7115 O.2     
  32 C32           -5.1140     5.6845    -2.8698 C.3     
  33 C33           -0.8978     6.7434    -1.3623 C.3     
  34 C34            4.4238     1.6497    -0.9730 C.2     
  35 C35            5.6988     1.3316    -0.6958 C.2     
  36 O36            5.7168     0.3549     0.2239 O.3     
  37 H37           -1.1903    -1.7975     0.0844 H       
  38 H38           -3.3214    -0.6071     0.0881 H       
  39 H39           -1.2522     3.1541     0.0171 H       
  40 H40            1.5420     3.6297     1.0555 H       
  41 H41            2.8053     3.2826    -0.1473 H       
  42 H42            1.6478     5.8762    -0.2582 H       
  43 H43            0.9775     6.9111    -2.4118 H       
  44 H44            0.0676     5.4187    -2.7622 H       
  45 H45           -1.9989     5.0534    -2.1170 H       
  46 H46           -2.3093     6.5770    -2.9804 H       
  47 H47           -2.7324     3.8998     0.0226 H       
  48 H48           -3.1147     6.1510    -0.0773 H       
  49 H49           -3.6611     7.4277    -1.1937 H       
  50 H50            2.9688    -1.7923    -0.1631 H       
  51 H51            1.8223    -2.0669     2.0183 H       
  52 H52            0.3397    -2.5758     1.1750 H       
  53 H53            3.0429    -3.9860     1.0304 H       
  54 H54            1.6325    -4.5387     1.9651 H       
  55 H55            1.7756    -5.7181    -0.2114 H       
  56 H56            0.3124    -4.7080    -0.1271 H       
  57 H57            2.9415    -3.9244    -1.4652 H       
  58 H58            1.4589    -4.4334    -2.3085 H       
  59 H59            0.2383    -2.5143    -1.3206 H       
  60 H60            1.6486    -1.9616    -2.2553 H       
  61 H61            4.2050    -0.7539     1.2922 H       
  62 H62           -4.5954     5.0750    -3.6098 H       
  63 H63           -6.1567     5.3728    -2.8086 H       
  64 H64           -5.0649     6.7330    -3.1637 H       
  65 H65           -0.9055     6.5485    -0.2900 H       
  66 H66           -0.8955     7.8196    -1.5353 H       
  67 H67            4.0776     2.3957    -1.6731 H       
  68 H68            6.5698     1.7871    -1.1434 H       
@<TRIPOS>BOND
   1    1    2 ar
   2    1    7 1
   3    1    6 ar
   4    2    3 ar
   5    2    9 1
   6    3    4 ar
   7    3   37 1
   8    4    5 ar
   9    4   38 1
  10    5    6 ar
  11    5   16 1
  12    6   39 1
  13    7    8 1
  14    7   10 1
  15    8    9 2
  16    8   22 1
  17    9   23 1
  18   10   11 1
  19   10   40 1
  20   10   41 1
  21   11   12 am
  22   11   13 2
  23   12   14 1
  24   12   42 1
  25   14   33 1
  26   14   43 1
  27   14   44 1
  28   15   19 1
  29   15   33 1
  30   15   45 1
  31   15   46 1
  32   16   17 2
  33   16   18 am
  34   18   21 am
  35   18   47 1
  36   19   20 1
  37   19   48 1
  38   19   49 1
  39   20   21 am
  40   20   32 1
  41   21   30 2
  42   21   31 2
  43   22   34 1
  44   22   29 2
  45   23   24 1
  46   23   28 1
  47   23   50 1
  48   24   25 1
  49   24   51 1
  50   24   52 1
  51   25   26 1
  52   25   53 1
  53   25   54 1
  54   26   27 1
  55   26   55 1
  56   26   56 1
  57   27   28 1
  58   27   57 1
  59   27   58 1
  60   28   59 1
  61   28   60 1
  62   29   36 1
  63   29   61 1
  64   32   62 1
  65   32   63 1
  66   32   64 1
  67   33   65 1
  68   33   66 1
  69   34   35 2
  70   34   67 1
  71   35   36 1
  72   35   68 1

#	End of record

