#	Name: ASD01840342
#	Creating user name:	WinNT
#	Creation time:	15. 06. 2019 19:37

#	Modifying user name:	WinNT
#	Modification time:	15. 06. 2019 19:37

#	Program:	/corina/corina34_cracker 3.40 0067  02.08.2006

@<TRIPOS>MOLECULE
ASD01840342
  48   52    0    0    0
SMALL
NO_CHARGES


@<TRIPOS>ATOM
   1 C1             1.0099     1.2403    -0.2861 C.3     
   2 C2             0.7537    -0.2435    -0.2256 C.2     
   3 N3             0.5702    -1.0318    -1.2774 N.2     
   4 C4             0.3712    -2.2797    -0.8703 C.2     
   5 C5             0.1315    -3.4840    -1.5637 C.2     
   6 C6            -0.0377    -4.6346    -0.8752 C.2     
   7 C7            -0.2938    -5.9222    -1.6152 C.3     
   8 C8             0.0261    -4.6340     0.5521 C.2     
   9 C9            -0.1264    -5.7512     1.4662 C.2     
  10 N10           -0.3697    -7.0497     1.0382 N.pl3   
  11 C11           -0.0093    -5.4147     2.7775 C.2     
  12 S12            0.2958    -3.6978     2.9528 S.3     
  13 C13            0.2627    -3.4383     1.2125 C.2     
  14 N14            0.4315    -2.2791     0.4904 N.pl3   
  15 N15            0.6838    -0.9544     0.8741 N.2     
  16 C16           -0.1192    -6.3262     3.8547 C.2     
  17 O17           -0.3336    -7.5050     3.6355 O.2     
  18 N18            0.0133    -5.8897     5.1229 N.am    
  19 C19           -0.1005    -6.8332     6.2379 C.3     
  20 C20            1.2384    -7.1313     6.9364 C.3     
  21 N21            0.9114    -5.9980     7.8297 N.3     
  22 C22           -0.5326    -6.1781     7.5622 C.3     
  23 C23            1.2167    -6.3038     9.1593 C.ar    
  24 C24            2.3364    -7.0691     9.4572 C.ar    
  25 C25            2.6371    -7.3709    10.7716 C.ar    
  26 C26            1.8234    -6.9115    11.7922 C.ar    
  27 F27            2.1196    -7.2079    13.0766 F       
  28 C28            0.7042    -6.1468    11.4982 C.ar    
  29 F29           -0.0890    -5.6988    12.4959 F       
  30 C30            0.4035    -5.8377    10.1842 C.ar    
  31 H31            2.0828     1.4215    -0.3505 H       
  32 H32            0.5175     1.6585    -1.1640 H       
  33 H33            0.6147     1.7142     0.6124 H       
  34 H34            0.0830    -3.4868    -2.6426 H       
  35 H35           -0.3076    -5.7283    -2.6878 H       
  36 H36            0.4965    -6.6368    -1.3853 H       
  37 H37           -1.2556    -6.3328    -1.3078 H       
  38 H38           -0.4449    -7.2419     0.0904 H       
  39 H39           -0.4643    -7.7645     1.6871 H       
  40 H40            0.1840    -4.9510     5.2975 H       
  41 H41           -0.6723    -7.7254     5.9827 H       
  42 H42            1.2644    -8.0962     7.4427 H       
  43 H43            2.1108    -6.9565     6.3066 H       
  44 H44           -1.0753    -5.2418     7.4324 H       
  45 H45           -1.0247    -6.8643     8.2515 H       
  46 H46            2.9719    -7.4288     8.6615 H       
  47 H47            3.5081    -7.9661    11.0027 H       
  48 H48           -0.4653    -5.2386     9.9550 H       
@<TRIPOS>BOND
   1    1    2 1
   2    1   31 1
   3    1   32 1
   4    1   33 1
   5    2   15 2
   6    2    3 1
   7    3    4 2
   8    4   14 1
   9    4    5 1
  10    5    6 2
  11    5   34 1
  12    6    7 1
  13    6    8 1
  14    7   35 1
  15    7   36 1
  16    7   37 1
  17    8   13 2
  18    8    9 1
  19    9   10 1
  20    9   11 2
  21   10   38 1
  22   10   39 1
  23   11   12 1
  24   11   16 1
  25   12   13 1
  26   13   14 1
  27   14   15 1
  28   16   17 2
  29   16   18 am
  30   18   19 1
  31   18   40 1
  32   19   22 1
  33   19   20 1
  34   19   41 1
  35   20   21 1
  36   20   42 1
  37   20   43 1
  38   21   22 1
  39   21   23 1
  40   22   44 1
  41   22   45 1
  42   23   30 ar
  43   23   24 ar
  44   24   25 ar
  45   24   46 1
  46   25   26 ar
  47   25   47 1
  48   26   27 1
  49   26   28 ar
  50   28   29 1
  51   28   30 ar
  52   30   48 1

#	End of record

