#	Name: ASD01813796
#	Creating user name:	WinNT
#	Creation time:	15. 06. 2019 19:31

#	Modifying user name:	WinNT
#	Modification time:	15. 06. 2019 19:31

#	Program:	/corina/corina34_cracker 3.40 0067  02.08.2006

@<TRIPOS>MOLECULE
ASD01813796
  71   74    0    0    0
SMALL
NO_CHARGES


@<TRIPOS>ATOM
   1 C1            -0.0739     1.3528     0.1242 C.2     
   2 C2            -0.0428    -0.0479     0.0924 C.2     
   3 C3             1.1593    -0.6924     0.0660 C.2     
   4 C4             2.3461     0.0593     0.0711 C.2     
   5 N5             2.2862     1.4261     0.1028 N.am    
   6 C6             1.0790     2.0593     0.1286 C.2     
   7 C7             3.5827    -0.6006     0.0441 C.2     
   8 C8             4.7416     0.1201     0.0492 C.2     
   9 C9             4.6762     1.5255     0.0813 C.2     
  10 C10            3.4174     2.1598     0.1083 C.2     
  11 O11            3.3514     3.3772     0.1358 O.2     
  12 C12            5.9051     2.3222     0.0879 C.2     
  13 O13            5.8356     3.6690     0.1187 O.3     
  14 O14            6.9884     1.7694     0.0656 O.2     
  15 C15            3.6324    -2.1064     0.0099 C.3     
  16 N16            3.7555    -2.5608    -1.3816 N.3     
  17 C17            4.0441    -3.9999    -1.4419 C.3     
  18 C18            4.3434    -4.3972    -2.8913 C.3     
  19 N19            3.2268    -3.9508    -3.7382 N.am    
  20 C20            2.7892    -2.5507    -3.6318 C.3     
  21 C21            2.5511    -2.2261    -2.1532 C.3     
  22 C22            2.6209    -4.8022    -4.5894 C.2     
  23 C23            5.2397    -4.3096    -0.5784 C.ar    
  24 O24            1.6003    -4.3746    -5.3565 O.3     
  25 O25            2.9957    -5.9556    -4.6646 O.2     
  26 C26            0.9952    -5.3461    -6.2500 C.3     
  27 C27            0.4348    -6.5114    -5.4322 C.3     
  28 C28           -0.1382    -4.6814    -7.0339 C.3     
  29 C29            2.0516    -5.8691    -7.2255 C.3     
  30 C30            5.2550    -5.4573     0.1928 C.ar    
  31 C31            6.3491    -5.7442     0.9852 C.ar    
  32 C32            7.4351    -4.8783     1.0069 C.ar    
  33 C33            7.4165    -3.7263     0.2309 C.ar    
  34 C34            6.3215    -3.4484    -0.5635 C.ar    
  35 N35            8.5431    -5.1651     1.8076 N.pl3   
  36 C36            8.5095    -6.3090     2.7222 C.3     
  37 C37            9.7388    -4.3220     1.7327 C.3     
  38 H38           -1.0220     1.8698     0.1407 H       
  39 H39           -0.9633    -0.6128     0.0892 H       
  40 H40            1.1983    -1.7714     0.0417 H       
  41 H41            1.0432     3.1384     0.1535 H       
  42 H42            5.6975    -0.3821     0.0292 H       
  43 H43            6.6734     4.1518     0.1219 H       
  44 H44            4.4915    -2.4547     0.5832 H       
  45 H45            2.7178    -2.5101     0.4444 H       
  46 H46            3.1805    -4.5594    -1.0823 H       
  47 H47            5.2659    -3.9182    -3.2192 H       
  48 H48            4.4452    -5.4802    -2.9605 H       
  49 H49            3.5624    -1.8941    -4.0309 H       
  50 H50            1.8636    -2.4129    -4.1906 H       
  51 H51            1.7084    -2.8103    -1.7837 H       
  52 H52            2.3332    -1.1636    -2.0446 H       
  53 H53           -0.3178    -6.1388    -4.7373 H       
  54 H54           -0.0195    -7.2407    -6.1030 H       
  55 H55            1.2422    -6.9849    -4.8738 H       
  56 H56            0.2611    -3.8512    -7.6165 H       
  57 H57           -0.5924    -5.4107    -7.7046 H       
  58 H58           -0.8908    -4.3088    -6.3389 H       
  59 H59            2.8591    -6.3426    -6.6670 H       
  60 H60            1.5974    -6.5983    -7.8962 H       
  61 H61            2.4509    -5.0389    -7.8080 H       
  62 H62            4.4101    -6.1299     0.1758 H       
  63 H63            6.3602    -6.6405     1.5877 H       
  64 H64            8.2592    -3.0510     0.2455 H       
  65 H65            6.3066    -2.5531    -1.1674 H       
  66 H66            8.8801    -7.1960     2.2084 H       
  67 H67            9.1386    -6.1009     3.5876 H       
  68 H68            7.4846    -6.4813     3.0510 H       
  69 H69            9.6156    -3.5865     0.9378 H       
  70 H70            9.8816    -3.8088     2.6837 H       
  71 H71           10.6089    -4.9435     1.5210 H       
@<TRIPOS>BOND
   1    1    2 1
   2    1    6 2
   3    1   38 1
   4    2    3 2
   5    2   39 1
   6    3    4 1
   7    3   40 1
   8    4    5 1
   9    4    7 2
  10    5    6 1
  11    5   10 am
  12    6   41 1
  13    7    8 1
  14    7   15 1
  15    8    9 2
  16    8   42 1
  17    9   10 1
  18    9   12 1
  19   10   11 2
  20   12   13 1
  21   12   14 2
  22   13   43 1
  23   15   16 1
  24   15   44 1
  25   15   45 1
  26   16   17 1
  27   16   21 1
  28   17   18 1
  29   17   23 1
  30   17   46 1
  31   18   19 1
  32   18   47 1
  33   18   48 1
  34   19   20 1
  35   19   22 am
  36   20   21 1
  37   20   49 1
  38   20   50 1
  39   21   51 1
  40   21   52 1
  41   22   24 1
  42   22   25 2
  43   23   30 ar
  44   23   34 ar
  45   24   26 1
  46   26   27 1
  47   26   28 1
  48   26   29 1
  49   27   53 1
  50   27   54 1
  51   27   55 1
  52   28   56 1
  53   28   57 1
  54   28   58 1
  55   29   59 1
  56   29   60 1
  57   29   61 1
  58   30   31 ar
  59   30   62 1
  60   31   32 ar
  61   31   63 1
  62   32   33 ar
  63   32   35 1
  64   33   34 ar
  65   33   64 1
  66   34   65 1
  67   35   36 1
  68   35   37 1
  69   36   66 1
  70   36   67 1
  71   36   68 1
  72   37   69 1
  73   37   70 1
  74   37   71 1

#	End of record

