#	Name: ASD02500254
#	Creating user name:	WinNT
#	Creation time:	15. 06. 2019 20:22

#	Modifying user name:	WinNT
#	Modification time:	15. 06. 2019 20:22

#	Program:	/corina/corina34_cracker 3.40 0067  02.08.2006

@<TRIPOS>MOLECULE
ASD02500254
  64   68    0    0    0
SMALL
NO_CHARGES


@<TRIPOS>ATOM
   1 N1            -3.3204     5.4866     0.4449 N.ar    
   2 C2            -4.4961     6.0463     0.5954 C.ar    
   3 C3            -5.3316     5.7218     1.6623 C.ar    
   4 C4            -4.9312     4.7978     2.5849 C.ar    
   5 C5            -3.6682     4.1984     2.4198 C.ar    
   6 C6            -3.1889     3.2409     3.3278 C.ar    
   7 C7            -1.9614     2.6844     3.1334 C.ar    
   8 C8            -1.1736     3.0530     2.0451 C.ar    
   9 C9            -1.6071     3.9779     1.1456 C.ar    
  10 C10           -2.8686     4.5749     1.3120 C.ar    
  11 S11           -0.5901     4.4261    -0.2217 S.o2    
  12 O12           -0.5779     5.8464    -0.2642 O.2     
  13 O13            0.5901     3.6415    -0.1182 O.2     
  14 N14           -1.3665     3.9239    -1.5955 N.am    
  15 C15           -1.5673     2.5669    -1.8241 C.ar    
  16 C16           -2.8110     2.1124    -2.2460 C.ar    
  17 C17           -3.0107     0.7625    -2.4739 C.ar    
  18 C18           -1.9528    -0.1393    -2.2766 C.ar    
  19 C19           -0.7071     0.3338    -1.8519 C.ar    
  20 C20           -0.5192     1.6685    -1.6350 C.ar    
  21 O21           -4.2225     0.3125    -2.8853 O.3     
  22 C22           -5.2507     1.2888    -3.0640 C.3     
  23 C23           -2.1542    -1.5780    -2.5156 C.2     
  24 O24           -3.0542    -2.1684    -1.9493 O.2     
  25 N25           -1.3413    -2.2408    -3.3620 N.am    
  26 C26           -1.5872    -3.6538    -3.6828 C.3     
  27 C27           -1.6955    -3.7990    -5.2057 C.3     
  28 N28           -0.5476    -3.1216    -5.8248 N.am    
  29 C29           -0.3017    -1.7086    -5.5041 C.3     
  30 C30           -0.1967    -1.5619    -3.9855 C.3     
  31 C31            0.2653    -3.7844    -6.6712 C.2     
  32 C32            1.3530    -3.0656    -7.3654 C.ar    
  33 C33            2.6647    -3.5450    -7.3007 C.ar    
  34 C34            3.6783    -2.8645    -7.9546 C.ar    
  35 C35            3.3926    -1.7138    -8.6691 C.ar    
  36 C36            2.0952    -1.2366    -8.7351 C.ar    
  37 C37            1.0751    -1.9073    -8.0941 C.ar    
  38 O38            0.1032    -4.9738    -6.8633 O.2     
  39 F39            4.9474    -3.3241    -7.8949 F       
  40 F40            2.9425    -4.6677    -6.6023 F       
  41 H41           -4.8259     6.7788    -0.1265 H       
  42 H42           -6.2946     6.2007     1.7597 H       
  43 H43           -5.5659     4.5345     3.4182 H       
  44 H44           -3.7901     2.9476     4.1757 H       
  45 H45           -1.5935     1.9479     3.8324 H       
  46 H46           -0.2032     2.5976     1.9132 H       
  47 H47           -1.6812     4.5762    -2.2408 H       
  48 H48           -3.6203     2.8118    -2.3953 H       
  49 H49            0.1085    -0.3573    -1.6989 H       
  50 H50            0.4458     2.0293    -1.3110 H       
  51 H51           -5.4337     1.8008    -2.1193 H       
  52 H52           -4.9369     2.0136    -3.8153 H       
  53 H53           -6.1656     0.7967    -3.3938 H       
  54 H54           -0.7605    -4.2616    -3.3152 H       
  55 H55           -2.5180    -3.9780    -3.2173 H       
  56 H56           -1.6852    -4.8554    -5.4742 H       
  57 H57           -2.6215    -3.3400    -5.5521 H       
  58 H58            0.6291    -1.3844    -5.9695 H       
  59 H59           -1.1284    -1.1008    -5.8716 H       
  60 H60           -0.2094    -0.5048    -3.7198 H       
  61 H61            0.7314    -2.0173    -3.6399 H       
  62 H62            4.1860    -1.1857    -9.1771 H       
  63 H63            1.8802    -0.3380    -9.2943 H       
  64 H64            0.0630    -1.5347    -8.1518 H       
@<TRIPOS>BOND
   1    1    2 ar
   2    1   10 ar
   3    2    3 ar
   4    2   41 1
   5    3    4 ar
   6    3   42 1
   7    4    5 ar
   8    4   43 1
   9    5    6 ar
  10    5   10 ar
  11    6    7 ar
  12    6   44 1
  13    7    8 ar
  14    7   45 1
  15    8    9 ar
  16    8   46 1
  17    9   10 ar
  18    9   11 1
  19   11   12 2
  20   11   13 2
  21   11   14 am
  22   14   15 1
  23   14   47 1
  24   15   16 ar
  25   15   20 ar
  26   16   17 ar
  27   16   48 1
  28   17   18 ar
  29   17   21 1
  30   18   19 ar
  31   18   23 1
  32   19   20 ar
  33   19   49 1
  34   20   50 1
  35   21   22 1
  36   22   51 1
  37   22   52 1
  38   22   53 1
  39   23   24 2
  40   23   25 am
  41   25   26 1
  42   25   30 1
  43   26   27 1
  44   26   54 1
  45   26   55 1
  46   27   28 1
  47   27   56 1
  48   27   57 1
  49   28   29 1
  50   28   31 am
  51   29   30 1
  52   29   58 1
  53   29   59 1
  54   30   60 1
  55   30   61 1
  56   31   32 1
  57   31   38 2
  58   32   33 ar
  59   32   37 ar
  60   33   34 ar
  61   33   40 1
  62   34   35 ar
  63   34   39 1
  64   35   36 ar
  65   35   62 1
  66   36   37 ar
  67   36   63 1
  68   37   64 1

#	End of record

