#	Name: ASD01910873
#	Creating user name:	WinNT
#	Creation time:	15. 06. 2019 19:56

#	Modifying user name:	WinNT
#	Modification time:	15. 06. 2019 19:56

#	Program:	/corina/corina34_cracker 3.40 0067  02.08.2006

@<TRIPOS>MOLECULE
ASD01910873
  50   53    0    0    0
SMALL
NO_CHARGES


@<TRIPOS>ATOM
   1 C1            -0.2865     1.0977     0.3968 C.ar    
   2 C2            -0.1929    -0.2779     0.3069 C.ar    
   3 C3             1.0457    -0.8852     0.2309 C.ar    
   4 C4             2.2007    -0.1132     0.2447 C.ar    
   5 C5             2.1083     1.2691     0.3345 C.ar    
   6 C6             0.8640     1.8742     0.4105 C.ar    
   7 N7             3.4530    -0.7270     0.1687 N.3     
   8 C8             3.3192    -2.1872     0.0813 C.3     
   9 C9             4.6952    -2.8081    -0.1818 C.3     
  10 N10            5.6285    -2.3298     0.8494 N.am    
  11 C11            5.7165    -0.8815     1.0904 C.3     
  12 C12            4.3003    -0.3365     1.3034 C.3     
  13 C13            6.3833    -3.1955     1.5545 C.2     
  14 C14            7.4036    -2.6891     2.4974 C.ar    
  15 C15            7.5967    -3.3235     3.7265 C.ar    
  16 C16            8.5490    -2.8524     4.6091 C.ar    
  17 C17            9.3165    -1.7524     4.2840 C.ar    
  18 C18            9.1338    -1.1068     3.0571 C.ar    
  19 C19            8.1780    -1.5816     2.1591 C.ar    
  20 C20            9.9303     0.0349     2.7209 C.1     
  21 O21            6.2254    -4.3927     1.4153 O.2     
  22 C22           10.5832     0.9708     2.4453 C.1     
  23 C23           11.3797     2.1124     2.1091 C.ar    
  24 C24           11.2057     2.7651     0.8862 C.ar    
  25 N25           11.9385     3.8148     0.5778 N.ar    
  26 C26           12.8560     4.2896     1.3981 C.ar    
  27 C27           13.0900     3.6998     2.6278 C.ar    
  28 C28           12.3433     2.5978     3.0036 C.ar    
  29 O29            0.7701     3.2271     0.4981 O.3     
  30 H30           -1.2564     1.5697     0.4520 H       
  31 H31           -1.0897    -0.8796     0.2964 H       
  32 H32            1.1161    -1.9606     0.1610 H       
  33 H33            3.0045     1.8717     0.3454 H       
  34 H34            2.9195    -2.5727     1.0192 H       
  35 H35            2.6430    -2.4423    -0.7348 H       
  36 H36            4.6219    -3.8946    -0.1338 H       
  37 H37            5.0512    -2.5055    -1.1666 H       
  38 H38            6.3185    -0.6943     1.9796 H       
  39 H39            6.1707    -0.3937     0.2279 H       
  40 H40            4.3357     0.7506     1.3738 H       
  41 H41            3.8870    -0.7477     2.2244 H       
  42 H42            6.9995    -4.1847     3.9878 H       
  43 H43            8.6935    -3.3470     5.5582 H       
  44 H44           10.0594    -1.3892     4.9788 H       
  45 H45            8.0324    -1.0872     1.2100 H       
  46 H46           10.4643     2.4055     0.1879 H       
  47 H47           13.4346     5.1530     1.1048 H       
  48 H48           13.8449     4.0986     3.2893 H       
  49 H49           12.5051     2.1181     3.9576 H       
  50 H50            0.7159     3.6738    -0.3578 H       
@<TRIPOS>BOND
   1    1    2 ar
   2    1    6 ar
   3    1   30 1
   4    2    3 ar
   5    2   31 1
   6    3    4 ar
   7    3   32 1
   8    4    5 ar
   9    4    7 1
  10    5    6 ar
  11    5   33 1
  12    6   29 1
  13    7    8 1
  14    7   12 1
  15    8    9 1
  16    8   34 1
  17    8   35 1
  18    9   10 1
  19    9   36 1
  20    9   37 1
  21   10   11 1
  22   10   13 am
  23   11   12 1
  24   11   38 1
  25   11   39 1
  26   12   40 1
  27   12   41 1
  28   13   14 1
  29   13   21 2
  30   14   15 ar
  31   14   19 ar
  32   15   16 ar
  33   15   42 1
  34   16   17 ar
  35   16   43 1
  36   17   18 ar
  37   17   44 1
  38   18   19 ar
  39   18   20 1
  40   19   45 1
  41   20   22 3
  42   22   23 1
  43   23   24 ar
  44   23   28 ar
  45   24   25 ar
  46   24   46 1
  47   25   26 ar
  48   26   27 ar
  49   26   47 1
  50   27   28 ar
  51   27   48 1
  52   28   49 1
  53   29   50 1

#	End of record

