#	Name: ASD08150779
#	Creating user name:	WinNT
#	Creation time:	15. 06. 2019 21:16

#	Modifying user name:	WinNT
#	Modification time:	15. 06. 2019 21:16

#	Program:	/corina/corina34_cracker 3.40 0067  02.08.2006

@<TRIPOS>MOLECULE
ASD08150779
  60   63    0    0    0
SMALL
NO_CHARGES


@<TRIPOS>ATOM
   1 C1            -0.0173     1.3316     0.1118 C.2     
   2 N2            -0.0004     0.0022     0.2024 N.2     
   3 C3             1.1331    -0.6712     0.2873 C.2     
   4 C4             2.3484     0.0109     0.2833 C.2     
   5 C5             2.3336     1.4184     0.1875 C.2     
   6 N6             1.1445     2.0529     0.1028 N.am    
   7 C7            -1.2508     2.0011     0.0181 C.2     
   8 C8            -1.2710     3.3608    -0.0747 C.2     
   9 C9            -0.0631     4.0722    -0.0755 C.2     
  10 C10            1.1136     3.4117     0.0089 C.2     
  11 O11            3.3767     2.0512     0.1817 O.2     
  12 C12            1.1118    -2.1746     0.3888 C.3     
  13 C13            0.4504    -2.5876     1.7052 C.3     
  14 N14            0.3522    -2.7292    -0.7344 N.pl3   
  15 N15           -1.1004    -4.1180    -3.0608 N.2     
  16 C16           -1.4174    -5.0507    -3.9112 C.2     
  17 N17           -0.6559    -6.1597    -3.6914 N.pl3   
  18 C18            0.1790    -5.8833    -2.6384 C.ar    
  19 N19            1.1213    -6.5562    -1.9862 N.ar    
  20 C20            1.7698    -6.0015    -0.9838 C.ar    
  21 N21            1.5253    -4.7695    -0.5765 N.ar    
  22 C22            0.6008    -4.0197    -1.1679 C.ar    
  23 C23           -0.1181    -4.5678    -2.2436 C.ar    
  24 C24            3.6295    -0.7268     0.3782 C.ar    
  25 C25            4.5280    -0.7086    -0.6885 C.ar    
  26 C26            5.7198    -1.3973    -0.5952 C.ar    
  27 C27            6.0247    -2.1063     0.5555 C.ar    
  28 C28            5.1354    -2.1275     1.6178 C.ar    
  29 C29            3.9436    -1.4373     1.5366 C.ar    
  30 F30            7.1928    -2.7795     0.6418 F       
  31 C31            2.4055     4.1875     0.0003 C.3     
  32 C32            2.1019     5.6827    -0.1140 C.3     
  33 H33           -2.1748     1.4420     0.0194 H       
  34 H34           -2.2115     3.8867    -0.1475 H       
  35 H35           -0.0722     5.1496    -0.1492 H       
  36 H36            2.1328    -2.5552     0.3601 H       
  37 H37           -0.5706    -2.2070     1.7339 H       
  38 H38            0.4350    -3.6750     1.7786 H       
  39 H39            1.0156    -2.1749     2.5409 H       
  40 H40           -0.3251    -2.1919    -1.1742 H       
  41 H41           -2.1729    -4.9596    -4.6777 H       
  42 H42           -0.6969    -6.9918    -4.1883 H       
  43 H43            2.5299    -6.5759    -0.4751 H       
  44 H44            4.2911    -0.1566    -1.5860 H       
  45 H45            6.4161    -1.3841    -1.4207 H       
  46 H46            5.3775    -2.6818     2.5125 H       
  47 H47            3.2531    -1.4508     2.3669 H       
  48 H48            2.9499     3.9969     0.9252 H       
  49 H49            3.0120     3.8739    -0.8494 H       
  50 H50            3.0364     6.2438    -0.1202 H       
  51 H51            1.5575     5.8732    -1.0389 H       
  52 H52            1.4955     5.9962     0.7358 H       
  53 C53           13.3643    13.2320     8.6877 C.2     
  54 C54           13.3847    11.7251     8.6794 C.3     
  55 O55           14.4023    13.8503     8.6811 O.2     
  56 O56           12.1928    13.8873     8.6968 O.3     
  57 F57           14.7098    11.2768     8.6644 F       
  58 F58           12.7425    11.2438     9.8253 F       
  59 F59           12.7207    11.2560     7.5409 F       
  60 H60           12.2303    14.8535     8.7019 H       
@<TRIPOS>BOND
   1    1    2 2
   2    1    6 1
   3    1    7 1
   4    2    3 1
   5    3    4 2
   6    3   12 1
   7    4    5 1
   8    4   24 1
   9    5    6 am
  10    5   11 2
  11    6   10 1
  12    7    8 2
  13    7   33 1
  14    8    9 1
  15    8   34 1
  16    9   10 2
  17    9   35 1
  18   10   31 1
  19   12   13 1
  20   12   14 1
  21   12   36 1
  22   13   37 1
  23   13   38 1
  24   13   39 1
  25   14   22 1
  26   14   40 1
  27   15   16 2
  28   15   23 1
  29   16   17 1
  30   16   41 1
  31   17   18 1
  32   17   42 1
  33   18   19 ar
  34   18   23 ar
  35   19   20 ar
  36   20   21 ar
  37   20   43 1
  38   21   22 ar
  39   22   23 ar
  40   24   25 ar
  41   24   29 ar
  42   25   26 ar
  43   25   44 1
  44   26   27 ar
  45   26   45 1
  46   27   28 ar
  47   27   30 1
  48   28   29 ar
  49   28   46 1
  50   29   47 1
  51   31   32 1
  52   31   48 1
  53   31   49 1
  54   32   50 1
  55   32   51 1
  56   32   52 1
  57   53   54 1
  58   53   55 2
  59   53   56 1
  60   54   57 1
  61   54   58 1
  62   54   59 1
  63   56   60 1

#	End of record

