#	Name: ASD01150729
#	Creating user name:	WinNT
#	Creation time:	15. 06. 2019 19:04

#	Modifying user name:	WinNT
#	Modification time:	15. 06. 2019 19:04

#	Program:	/corina/corina34_cracker 3.40 0067  02.08.2006

@<TRIPOS>MOLECULE
ASD01150729
  44   46    0    0    0
SMALL
NO_CHARGES


@<TRIPOS>ATOM
   1 C1             0.0615     1.5048    -0.1500 C.3     
   2 C2             0.2921     2.8060     0.6209 C.3     
   3 C3             1.0227     3.8075    -0.2758 C.3     
   4 C4            -0.6139     0.5013     0.7488 C.2     
   5 O5            -0.1424    -0.6023     0.8834 O.2     
   6 N6            -1.1509     1.5878    -3.6757 N.ar    
   7 C7            -0.4151     1.3682    -2.6126 C.ar    
   8 C8            -0.8143     1.7777    -1.3456 C.ar    
   9 C9            -2.0247     2.4392    -1.1879 C.ar    
  10 C10           -2.8090     2.6693    -2.3467 C.ar    
  11 C11           -4.0419     3.3298    -2.2729 C.ar    
  12 C12           -4.7671     3.5328    -3.4099 C.ar    
  13 C13           -4.2966     3.0905    -4.6447 C.ar    
  14 C14           -3.1029     2.4449    -4.7504 C.ar    
  15 C15           -2.3275     2.2187    -3.5997 C.ar    
  16 C16           -2.4820     2.8894     0.1470 C.ar    
  17 C17           -2.3510     4.2277     0.5174 C.ar    
  18 C18           -2.7789     4.6410     1.7624 C.ar    
  19 C19           -3.3369     3.7310     2.6425 C.ar    
  20 C20           -3.4695     2.4022     2.2809 C.ar    
  21 C21           -3.0506     1.9779     1.0365 C.ar    
  22 C22            0.9012     0.6512    -2.7690 C.3     
  23 C23            2.0179     1.6755    -2.9806 C.3     
  24 Br24          -6.4315     4.4247    -3.3094 Br      
  25 H25            1.0192     1.1061    -0.4847 H       
  26 H26           -0.6679     3.2234     0.9247 H       
  27 H27            0.8958     2.6023     1.5053 H       
  28 H28            1.9595     3.3700    -0.6210 H       
  29 H29            0.3969     4.0503    -1.1345 H       
  30 H30            1.2323     4.7157     0.2894 H       
  31 H31           -1.5197     0.7691     1.2725 H       
  32 H32           -4.4163     3.6762    -1.3209 H       
  33 H33           -4.8884     3.2622    -5.5316 H       
  34 H34           -2.7525     2.1080    -5.7148 H       
  35 H35           -1.9153     4.9390    -0.1686 H       
  36 H36           -2.6777     5.6769     2.0506 H       
  37 H37           -3.6700     4.0592     3.6160 H       
  38 H38           -3.9055     1.6965     2.9724 H       
  39 H39           -3.1591     0.9413     0.7535 H       
  40 H40            1.1071     0.0696    -1.8704 H       
  41 H41            0.8517    -0.0155    -3.6299 H       
  42 H42            1.7669     2.3174    -3.8249 H       
  43 H43            2.1285     2.2831    -2.0824 H       
  44 H44            2.9538     1.1556    -3.1850 H       
@<TRIPOS>BOND
   1    1    2 1
   2    1    4 1
   3    1    8 1
   4    1   25 1
   5    2    3 1
   6    2   26 1
   7    2   27 1
   8    3   28 1
   9    3   29 1
  10    3   30 1
  11    4    5 2
  12    4   31 1
  13    6    7 ar
  14    6   15 ar
  15    7    8 ar
  16    7   22 1
  17    8    9 ar
  18    9   10 ar
  19    9   16 1
  20   10   11 ar
  21   10   15 ar
  22   11   12 ar
  23   11   32 1
  24   12   13 ar
  25   12   24 1
  26   13   14 ar
  27   13   33 1
  28   14   15 ar
  29   14   34 1
  30   16   17 ar
  31   16   21 ar
  32   17   18 ar
  33   17   35 1
  34   18   19 ar
  35   18   36 1
  36   19   20 ar
  37   19   37 1
  38   20   21 ar
  39   20   38 1
  40   21   39 1
  41   22   23 1
  42   22   40 1
  43   22   41 1
  44   23   42 1
  45   23   43 1
  46   23   44 1

#	End of record

