#	Name: ASD03091092
#	Creating user name:	WinNT
#	Creation time:	15. 06. 2019 20:30

#	Modifying user name:	WinNT
#	Modification time:	15. 06. 2019 20:30

#	Program:	/corina/corina34_cracker 3.40 0067  02.08.2006

@<TRIPOS>MOLECULE
ASD03091092
  57   59    0    0    0
SMALL
NO_CHARGES


@<TRIPOS>ATOM
   1 C1            -0.0261     1.4955    -0.0980 C.2     
   2 C2            -0.0029    -0.0113    -0.1044 C.3     
   3 O3             1.0107     2.1156    -0.0806 O.2     
   4 O4            -1.1986     2.1488    -0.1174 O.3     
   5 C5             1.6521    -1.7995    -0.0888 C.2     
   6 C6             3.0495    -2.2696    -0.0710 C.ar    
   7 C7             3.3316    -3.6381     0.0566 C.ar    
   8 C8             4.6506    -4.0723     0.0725 C.ar    
   9 C9             5.6812    -3.1615    -0.0364 C.ar    
  10 C10            5.4086    -1.8032    -0.1632 C.ar    
  11 C11            4.0995    -1.3552    -0.1869 C.ar    
  12 O12            0.7402    -2.6038    -0.1052 O.2     
  13 N13            1.3855    -0.4784    -0.0867 N.am    
  14 N14            7.9986     1.5767     0.3084 N.3     
  15 C15            7.0685     1.4571    -0.8248 C.3     
  16 C16            5.9559     0.4710    -0.5048 C.3     
  17 N17            6.4620    -0.8872    -0.2730 N.3     
  18 C18            7.3186    -0.9241     0.9205 C.3     
  19 C19            8.7795    -0.7551     0.5308 C.3     
  20 C20            9.1340     0.6613     0.1254 C.3     
  21 C21            7.4131     1.4913     1.6291 C.3     
  22 C22            6.8331     0.1156     1.9140 C.3     
  23 N23            2.2928    -4.5574     0.1674 N.pl3   
  24 C24           -1.1450     3.5998    -0.1099 C.3     
  25 C25           -0.3818     4.0883    -1.3427 C.3     
  26 C26           -2.5674     4.1628    -0.1344 C.3     
  27 C27           -0.4292     4.0771     1.1553 C.3     
  28 H28           -0.5237    -0.3864     0.7767 H       
  29 H29           -0.4984    -0.3785    -1.0031 H       
  30 H30            4.8700    -5.1252     0.1706 H       
  31 H31            6.7051    -3.5049    -0.0227 H       
  32 H32            3.8900    -0.3008    -0.2900 H       
  33 H33            2.1129     0.1632    -0.0736 H       
  34 H34            6.6329     2.4336    -1.0365 H       
  35 H35            7.6143     1.1103    -1.7022 H       
  36 H36            5.4305     0.8092     0.3883 H       
  37 H37            5.2536     0.4486    -1.3381 H       
  38 H38            7.2038    -1.9021     1.3877 H       
  39 H39            9.4026    -1.0425     1.3777 H       
  40 H40            8.9982    -1.4223    -0.3029 H       
  41 H41            9.4307     0.6676    -0.9234 H       
  42 H42            9.9708     1.0064     0.7327 H       
  43 H43            8.1807     1.7119     2.3710 H       
  44 H44            6.6195     2.2338     1.7127 H       
  45 H45            5.7457     0.1724     1.8644 H       
  46 H46            7.1249    -0.1908     2.9185 H       
  47 H47            1.3770    -4.2474     0.2452 H       
  48 H48            2.4846    -5.5083     0.1668 H       
  49 H49           -0.8917     3.7482    -2.2440 H       
  50 H50           -0.3415     5.1775    -1.3370 H       
  51 H51            0.6316     3.6872    -1.3252 H       
  52 H52           -3.1111     3.8148     0.7439 H       
  53 H53           -2.5271     5.2521    -0.1287 H       
  54 H54           -3.0773     3.8227    -1.0357 H       
  55 H55            0.5841     3.6760     1.1728 H       
  56 H56           -0.3890     5.1663     1.1610 H       
  57 H57           -0.9729     3.7291     2.0336 H       
@<TRIPOS>BOND
   1    1    2 1
   2    1    3 2
   3    1    4 1
   4    2   13 1
   5    2   28 1
   6    2   29 1
   7    4   24 1
   8    5    6 1
   9    5   12 2
  10    5   13 am
  11    6    7 ar
  12    6   11 ar
  13    7    8 ar
  14    7   23 1
  15    8    9 ar
  16    8   30 1
  17    9   10 ar
  18    9   31 1
  19   10   11 ar
  20   10   17 1
  21   11   32 1
  22   13   33 1
  23   14   15 1
  24   14   20 1
  25   14   21 1
  26   15   16 1
  27   15   34 1
  28   15   35 1
  29   16   17 1
  30   16   36 1
  31   16   37 1
  32   17   18 1
  33   18   19 1
  34   18   22 1
  35   18   38 1
  36   19   20 1
  37   19   39 1
  38   19   40 1
  39   20   41 1
  40   20   42 1
  41   21   22 1
  42   21   43 1
  43   21   44 1
  44   22   45 1
  45   22   46 1
  46   23   47 1
  47   23   48 1
  48   24   25 1
  49   24   27 1
  50   24   26 1
  51   25   49 1
  52   25   50 1
  53   25   51 1
  54   26   52 1
  55   26   53 1
  56   26   54 1
  57   27   55 1
  58   27   56 1
  59   27   57 1

#	End of record

