#	Name: ASD02039168
#	Creating user name:	WinNT
#	Creation time:	15. 06. 2019 20:17

#	Modifying user name:	WinNT
#	Modification time:	15. 06. 2019 20:17

#	Program:	/corina/corina34_cracker 3.40 0067  02.08.2006

@<TRIPOS>MOLECULE
ASD02039168
  37   39    0    0    0
SMALL
NO_CHARGES


@<TRIPOS>ATOM
   1 N1            -0.0009     1.2803     0.2562 N.2     
   2 C2             0.0074    -0.0199     0.1294 C.2     
   3 N3             1.2987    -0.4143     0.1381 N.2     
   4 C4             2.0014     0.6837     0.2712 C.2     
   5 O5             1.1345     1.6988     0.3387 O.3     
   6 C6             3.5037     0.7832     0.3360 C.3     
   7 O7             4.0277     0.9457    -0.9835 O.3     
   8 C8             5.3781     1.0520    -1.1028 C.ar    
   9 N9            -1.1051    -0.8435     0.0088 N.pl3   
  10 C10           -2.3896    -0.3053     0.1297 C.ar    
  11 C11           -3.4559    -0.8917    -0.5399 C.ar    
  12 C12           -4.7236    -0.3574    -0.4183 C.ar    
  13 C13           -4.9320     0.7601     0.3690 C.ar    
  14 C14           -3.8726     1.3464     1.0371 C.ar    
  15 C15           -2.6034     0.8138     0.9243 C.ar    
  16 C16            5.9533     1.2117    -2.3547 C.ar    
  17 C17            7.3250     1.3196    -2.4759 C.ar    
  18 C18            8.1272     1.2689    -1.3455 C.ar    
  19 C19            7.5519     1.1102    -0.0935 C.ar    
  20 C20            6.1799     1.0066     0.0281 C.ar    
  21 O21            9.4777     1.3743    -1.4648 O.3     
  22 C22           -6.3166     1.3407     0.4990 C.3     
  23 F23           -6.9728     0.7440     1.5809 F       
  24 F24           -6.2256     2.7204     0.7121 F       
  25 F25           -7.0367     1.0967    -0.6754 F       
  26 H26            3.7850     1.6411     0.9468 H       
  27 H27            3.9094    -0.1265     0.7786 H       
  28 H28           -0.9906    -1.7919    -0.1593 H       
  29 H29           -3.2938    -1.7644    -1.1553 H       
  30 H30           -5.5531    -0.8127    -0.9390 H       
  31 H31           -4.0387     2.2194     1.6509 H       
  32 H32           -1.7765     1.2720     1.4466 H       
  33 H33            5.3287     1.2512    -3.2349 H       
  34 H34            7.7730     1.4432    -3.4508 H       
  35 H35            8.1766     1.0703     0.7867 H       
  36 H36            5.7319     0.8830     1.0030 H       
  37 H37            9.8071     2.2821    -1.4166 H       
@<TRIPOS>BOND
   1    1    2 2
   2    1    5 1
   3    2    3 1
   4    2    9 1
   5    3    4 2
   6    4    5 1
   7    4    6 1
   8    6    7 1
   9    6   26 1
  10    6   27 1
  11    7    8 1
  12    8   16 ar
  13    8   20 ar
  14    9   10 1
  15    9   28 1
  16   10   11 ar
  17   10   15 ar
  18   11   12 ar
  19   11   29 1
  20   12   13 ar
  21   12   30 1
  22   13   14 ar
  23   13   22 1
  24   14   15 ar
  25   14   31 1
  26   15   32 1
  27   16   17 ar
  28   16   33 1
  29   17   18 ar
  30   17   34 1
  31   18   19 ar
  32   18   21 1
  33   19   20 ar
  34   19   35 1
  35   20   36 1
  36   21   37 1
  37   22   23 1
  38   22   24 1
  39   22   25 1

#	End of record

