#	Name: ASD04591102
#	Creating user name:	WinNT
#	Creation time:	15. 06. 2019 20:52

#	Modifying user name:	WinNT
#	Modification time:	15. 06. 2019 20:52

#	Program:	/corina/corina34_cracker 3.40 0067  02.08.2006

@<TRIPOS>MOLECULE
ASD04591102
  70   75    0    0    0
SMALL
NO_CHARGES


@<TRIPOS>ATOM
   1 N1            -2.8101    -3.3621     0.1066 N.ar    
   2 C2            -1.5983    -2.8221     0.1282 C.ar    
   3 N3            -0.4969    -3.5552     0.1143 N.ar    
   4 C4            -0.5677    -4.8825     0.0779 C.ar    
   5 C5            -1.8408    -5.4870     0.0546 C.ar    
   6 C6            -2.9702    -4.6747     0.0701 C.ar    
   7 N7             0.3831    -5.8727     0.0562 N.pl3   
   8 C8            -0.2177    -7.1192     0.0192 C.ar    
   9 C9            -1.6122    -6.9370     0.0165 C.ar    
  10 C10            0.2808    -8.4152    -0.0133 C.ar    
  11 N11           -0.5374    -9.4473    -0.0457 N.ar    
  12 C12           -1.8516    -9.3104    -0.0491 C.ar    
  13 C13           -2.4355    -8.0618    -0.0180 C.ar    
  14 N14           -1.4821    -1.4424     0.1663 N.pl3   
  15 C15           -2.6208    -0.6435     0.0624 C.ar    
  16 N16           -3.7942    -1.2055    -0.1787 N.ar    
  17 C17           -4.8974    -0.4892    -0.2849 C.ar    
  18 C18           -4.8632     0.8901    -0.1465 C.ar    
  19 C19           -3.6446     1.5177     0.1080 C.ar    
  20 C20           -2.5107     0.7338     0.2189 C.ar    
  21 N21           -6.0377     1.6432    -0.2615 N.3     
  22 C22            1.8298    -5.6425     0.0698 C.3     
  23 C23           -6.2556     2.4645     0.9361 C.3     
  24 C24            2.2429    -4.8119    -1.1579 C.3     
  25 C25            2.8715    -3.5106    -0.6183 C.3     
  26 C26            3.3488    -3.8821     0.8076 C.3     
  27 C27            2.2218    -4.8169     1.3126 C.3     
  28 C28           -7.1935     0.7779    -0.5294 C.3     
  29 C29           -8.4290     1.6418    -0.7927 C.3     
  30 C30           -8.6998     2.5227     0.4300 C.3     
  31 C31           -7.4631     3.3788     0.7166 C.3     
  32 N32           -9.8498     3.3962     0.1608 N.3     
  33 C33          -11.5502     2.8244     1.8279 C.3     
  34 C34          -11.1153     2.6795     0.3681 C.3     
  35 C35          -12.1913     3.2697    -0.5456 C.3     
  36 O36          -12.4544     4.6205    -0.1608 O.3     
  37 H37           -3.9594    -5.1078     0.0526 H       
  38 H38            1.3484    -8.5782    -0.0123 H       
  39 H39           -2.4778   -10.1899    -0.0767 H       
  40 H40           -3.5104    -7.9569    -0.0206 H       
  41 H41           -0.6089    -1.0317     0.2652 H       
  42 H42           -5.8375    -0.9829    -0.4822 H       
  43 H43           -3.5882     2.5903     0.2204 H       
  44 H44           -1.5502     1.1866     0.4161 H       
  45 H45            2.3592    -6.5952     0.0714 H       
  46 H46           -6.4419     1.8161     1.7922 H       
  47 H47           -5.3704     3.0714     1.1263 H       
  48 H48            2.9735    -5.3612    -1.7516 H       
  49 H49            1.3670    -4.5801    -1.7638 H       
  50 H50            3.7169    -3.2100    -1.2373 H       
  51 H51            2.1266    -2.7159    -0.5763 H       
  52 H52            4.3015    -4.4106     0.7707 H       
  53 H53            3.4231    -2.9931     1.4340 H       
  54 H54            1.3720    -4.2332     1.6665 H       
  55 H55            2.5929    -5.4696     2.1027 H       
  56 H56           -6.9895     0.1598    -1.4038 H       
  57 H57           -7.3755     0.1374     0.3335 H       
  58 H58           -8.2529     2.2728    -1.6640 H       
  59 H59           -9.2901     0.9992    -0.9762 H       
  60 H60           -8.9143     1.8922     1.2929 H       
  61 H61           -7.6340     3.9771     1.6115 H       
  62 H62           -7.2718     4.0371    -0.1309 H       
  63 H63           -9.8101     4.2309     0.7263 H       
  64 H64          -11.7706     3.8707     2.0392 H       
  65 H65          -12.4421     2.2227     2.0027 H       
  66 H66          -10.7476     2.4829     2.4817 H       
  67 H67          -10.9778     1.6241     0.1330 H       
  68 H68          -11.8433     3.2473    -1.5783 H       
  69 H69          -13.1051     2.6821    -0.4573 H       
  70 H70          -13.1283     5.0585    -0.6985 H       
@<TRIPOS>BOND
   1    1    2 ar
   2    1    6 ar
   3    2    3 ar
   4    2   14 1
   5    3    4 ar
   6    4    5 ar
   7    4    7 1
   8    5    6 ar
   9    5    9 1
  10    6   37 1
  11    7    8 1
  12    7   22 1
  13    8    9 ar
  14    8   10 ar
  15    9   13 ar
  16   10   11 ar
  17   10   38 1
  18   11   12 ar
  19   12   13 ar
  20   12   39 1
  21   13   40 1
  22   14   15 1
  23   14   41 1
  24   15   16 ar
  25   15   20 ar
  26   16   17 ar
  27   17   18 ar
  28   17   42 1
  29   18   19 ar
  30   18   21 1
  31   19   20 ar
  32   19   43 1
  33   20   44 1
  34   21   28 1
  35   21   23 1
  36   22   24 1
  37   22   27 1
  38   22   45 1
  39   23   31 1
  40   23   46 1
  41   23   47 1
  42   24   25 1
  43   24   48 1
  44   24   49 1
  45   25   26 1
  46   25   50 1
  47   25   51 1
  48   26   27 1
  49   26   52 1
  50   26   53 1
  51   27   54 1
  52   27   55 1
  53   28   29 1
  54   28   56 1
  55   28   57 1
  56   29   30 1
  57   29   58 1
  58   29   59 1
  59   30   31 1
  60   30   32 1
  61   30   60 1
  62   31   61 1
  63   31   62 1
  64   32   34 1
  65   32   63 1
  66   33   34 1
  67   33   64 1
  68   33   65 1
  69   33   66 1
  70   34   35 1
  71   34   67 1
  72   35   36 1
  73   35   68 1
  74   35   69 1
  75   36   70 1

#	End of record

