#	Name: ASD02198007
#	Creating user name:	WinNT
#	Creation time:	15. 06. 2019 20:18

#	Modifying user name:	WinNT
#	Modification time:	15. 06. 2019 20:18

#	Program:	/corina/corina34_cracker 3.40 0067  02.08.2006

@<TRIPOS>MOLECULE
ASD02198007
  48   50    0    0    0
SMALL
NO_CHARGES


@<TRIPOS>ATOM
   1 C1             1.1684     1.1496     0.4562 C.2     
   2 C2             1.2776    -0.2094     0.6277 C.2     
   3 C3             2.4913    -0.9177     0.7190 C.2     
   4 C4             2.4830    -2.3604     1.0477 C.ar    
   5 C5             3.4915    -3.1950     0.5637 C.ar    
   6 N6             2.2600     1.9955     0.3514 N.pl3   
   7 C7             1.4699    -2.8908     1.8479 C.ar    
   8 C8             1.4677    -4.2362     2.1513 C.ar    
   9 C9             2.4683    -5.0602     1.6642 C.ar    
  10 C10            3.4787    -4.5388     0.8738 C.ar    
  11 C11           -0.1533     1.5896     0.3925 C.2     
  12 C12           -1.0855     0.5780     0.5137 C.2     
  13 S13           -0.3205    -0.9321     0.7161 S.3     
  14 N14           -2.4462     0.7643     0.4820 N.pl3   
  15 C15           -3.3041    -0.3417     0.4786 C.ar    
  16 C16           -2.9091    -1.5265    -0.1252 C.ar    
  17 C17           -4.5554    -0.2574     1.0867 C.ar    
  18 C18           -5.4000    -1.3549     1.0801 C.ar    
  19 C19           -5.0014    -2.5310     0.4711 C.ar    
  20 C20           -3.7582    -2.6173    -0.1273 C.ar    
  21 O21           -4.9457     0.8994     1.6854 O.3     
  22 C22           -6.2413     0.9129     2.2883 C.3     
  23 Br23           2.4588    -6.9036     2.0859 Br      
  24 O24            3.5490    -0.3422     0.5271 O.2     
  25 C25           -0.5191     2.9947     0.2076 C.2     
  26 O26           -0.6761     3.4927    -1.0360 O.3     
  27 O27           -0.6816     3.7133     1.1755 O.2     
  28 C28           -1.0393     4.8944    -1.1438 C.3     
  29 C29           -1.1715     5.2749    -2.6198 C.3     
  30 H30            4.2800    -2.7895    -0.0528 H       
  31 H31            3.1592     1.6349     0.3987 H       
  32 H32            2.1252     2.9484     0.2307 H       
  33 H33            0.6894    -2.2489     2.2289 H       
  34 H34            0.6843    -4.6478     2.7704 H       
  35 H35            4.2563    -5.1864     0.4965 H       
  36 H36           -2.8124     1.6623     0.4621 H       
  37 H37           -1.9386    -1.5966    -0.5937 H       
  38 H38           -6.3699    -1.2925     1.5508 H       
  39 H39           -5.6613    -3.3859     0.4674 H       
  40 H40           -3.4514    -3.5378    -0.6015 H       
  41 H41           -6.4270     1.8926     2.7284 H       
  42 H42           -6.9969     0.7058     1.5304 H       
  43 H43           -6.2881     0.1504     3.0658 H       
  44 H44           -1.9902     5.0632    -0.6385 H       
  45 H45           -0.2668     5.5067    -0.6785 H       
  46 H46           -1.4441     6.3272    -2.7008 H       
  47 H47           -0.2205     5.1061    -3.1252 H       
  48 H48           -1.9439     4.6626    -3.0851 H       
@<TRIPOS>BOND
   1    1    2 2
   2    1    6 1
   3    1   11 1
   4    2    3 1
   5    2   13 1
   6    3    4 1
   7    3   24 2
   8    4    5 ar
   9    4    7 ar
  10    5   10 ar
  11    5   30 1
  12    6   31 1
  13    6   32 1
  14    7    8 ar
  15    7   33 1
  16    8    9 ar
  17    8   34 1
  18    9   10 ar
  19    9   23 1
  20   10   35 1
  21   11   12 2
  22   11   25 1
  23   12   13 1
  24   12   14 1
  25   14   15 1
  26   14   36 1
  27   15   16 ar
  28   15   17 ar
  29   16   20 ar
  30   16   37 1
  31   17   18 ar
  32   17   21 1
  33   18   19 ar
  34   18   38 1
  35   19   20 ar
  36   19   39 1
  37   20   40 1
  38   21   22 1
  39   22   41 1
  40   22   42 1
  41   22   43 1
  42   25   26 1
  43   25   27 2
  44   26   28 1
  45   28   29 1
  46   28   44 1
  47   28   45 1
  48   29   46 1
  49   29   47 1
  50   29   48 1

#	End of record

