#	Name: ASD01880390
#	Creating user name:	WinNT
#	Creation time:	15. 06. 2019 19:40

#	Modifying user name:	WinNT
#	Modification time:	15. 06. 2019 19:40

#	Program:	/corina/corina34_cracker 3.40 0067  02.08.2006

@<TRIPOS>MOLECULE
ASD01880390
  21   22    0    0    0
SMALL
NO_CHARGES


@<TRIPOS>ATOM
   1 C1            -0.0158     1.3163     0.0093 C.ar    
   2 N2             0.0021    -0.0041     0.0020 N.ar    
   3 C3             1.1445    -0.6748    -0.0125 C.ar    
   4 C4             2.3645     0.0480    -0.0203 C.ar    
   5 C5             2.2889     1.4441    -0.0121 C.ar    
   6 N6             1.0858     2.0308     0.0026 N.ar    
   7 C7             3.7368    -0.4216    -0.0359 C.2     
   8 C8             4.6482     0.5320    -0.0396 C.2     
   9 S9             3.9101     2.1225    -0.0240 S.3     
  10 C10            6.1349     0.2858    -0.0556 C.3     
  11 C11            6.6238     0.2105    -1.5034 C.3     
  12 S12            1.1479    -2.4368    -0.0214 S.3     
  13 C13           -0.6339    -2.7546    -0.0056 C.1     
  14 N14           -1.7522    -2.9541     0.0043 N.1     
  15 H15           -0.9683     1.8254     0.0165 H       
  16 H16            3.9926    -1.4708    -0.0436 H       
  17 H17            6.6438     1.1016     0.4578 H       
  18 H18            6.3529    -0.6545     0.4509 H       
  19 H19            7.6991     0.0324    -1.5150 H       
  20 H20            6.1148    -0.6053    -2.0168 H       
  21 H21            6.4057     1.1508    -2.0099 H       
@<TRIPOS>BOND
   1    1    2 ar
   2    1    6 ar
   3    1   15 1
   4    2    3 ar
   5    3    4 ar
   6    3   12 1
   7    4    5 ar
   8    4    7 1
   9    5    6 ar
  10    5    9 1
  11    7    8 2
  12    7   16 1
  13    8    9 1
  14    8   10 1
  15   10   11 1
  16   10   17 1
  17   10   18 1
  18   11   19 1
  19   11   20 1
  20   11   21 1
  21   12   13 1
  22   13   14 3

#	End of record

