#	Name: ASD07930519
#	Creating user name:	WinNT
#	Creation time:	15. 06. 2019 21:12

#	Modifying user name:	WinNT
#	Modification time:	15. 06. 2019 21:12

#	Program:	/corina/corina34_cracker 3.40 0067  02.08.2006

@<TRIPOS>MOLECULE
ASD07930519
  51   53    0    0    0
SMALL
NO_CHARGES


@<TRIPOS>ATOM
   1 C1            -0.0337     1.4578     0.0422 C.3     
   2 N2             0.7957    -0.4140    -2.1303 N.2     
   3 N3            -0.8902    -1.7838    -1.2685 N.pl3   
   4 C4            -0.9149    -2.8273    -0.2382 C.3     
   5 C5            -1.2299    -2.1886     1.1215 C.3     
   6 S6             0.0064    -0.8916     1.4433 S.o2    
   7 N7            -0.0136    -0.0070     0.0314 N.am    
   8 C8            -0.0109    -0.7264    -1.1553 C.2     
   9 C9             0.4500    -3.5158    -0.1754 C.3     
  10 C10           -1.9765    -3.8424    -0.5754 C.ar    
  11 C11           -2.8069    -3.6379    -1.6601 C.ar    
  12 C12           -3.7852    -4.5731    -1.9717 C.ar    
  13 C13           -3.9271    -5.7130    -1.1920 C.ar    
  14 C14           -3.0939    -5.9148    -0.1065 C.ar    
  15 C15           -2.1147    -4.9816     0.1989 C.ar    
  16 O16           -0.4573     0.0116     2.4376 O.2     
  17 O17            1.3142    -1.4444     1.5003 O.2     
  18 F18           -1.3012    -5.1794     1.2592 F       
  19 N19           -4.6273    -4.3665    -3.0702 N.am    
  20 C20           -5.0472    -5.4160    -3.8042 C.2     
  21 O21           -4.6184    -6.5298    -3.5731 O.2     
  22 C22           -6.0291    -5.2127    -4.8902 C.ar    
  23 C23           -6.5192    -3.9342    -5.1619 C.ar    
  24 C24           -7.4355    -3.7514    -6.1769 C.ar    
  25 C25           -7.8688    -4.8318    -6.9248 C.ar    
  26 C26           -7.3874    -6.1017    -6.6604 C.ar    
  27 S27           -9.0712    -4.5828    -8.2545 Du      
  28 C28           -6.4661    -6.2975    -5.6524 C.ar    
  29 F29           -8.1976    -5.5283    -9.2215 F       
  30 F30          -10.1407    -4.3614    -9.4374 F       
  31 F31           -9.9448    -3.6373    -7.2876 F       
  32 F32           -8.2435    -3.2987    -8.7625 F       
  33 F33           -9.8988    -5.8670    -7.7466 F       
  34 F34           -3.2311    -7.0233     0.6535 F       
  35 H35            0.9889     1.8352     0.0391 H       
  36 H36           -0.5575     1.8205    -0.8422 H       
  37 H37           -0.5473     1.8075     0.9377 H       
  38 H38            1.4076     0.3324    -2.0333 H       
  39 H39           -1.4881    -1.8390    -2.0303 H       
  40 H40           -2.2268    -1.7484     1.0986 H       
  41 H41           -1.1800    -2.9460     1.9037 H       
  42 H42            1.2166    -2.7809     0.0705 H       
  43 H43            0.4309    -4.2911     0.5905 H       
  44 H44            0.6749    -3.9657    -1.1424 H       
  45 H45           -2.6956    -2.7505    -2.2656 H       
  46 H46           -4.6875    -6.4413    -1.4325 H       
  47 H47           -4.9087    -3.4680    -3.3033 H       
  48 H48           -6.1820    -3.0901    -4.5786 H       
  49 H49           -7.8157    -2.7628    -6.3879 H       
  50 H50           -7.7299    -6.9409    -7.2476 H       
  51 H51           -6.0872    -7.2884    -5.4504 H       
@<TRIPOS>BOND
   1    1    7 1
   2    1   35 1
   3    1   36 1
   4    1   37 1
   5    2    8 2
   6    2   38 1
   7    3    4 1
   8    3    8 1
   9    3   39 1
  10    4    5 1
  11    4    9 1
  12    4   10 1
  13    5    6 1
  14    5   40 1
  15    5   41 1
  16    6    7 am
  17    6   16 2
  18    6   17 2
  19    7    8 1
  20    9   42 1
  21    9   43 1
  22    9   44 1
  23   10   11 ar
  24   10   15 ar
  25   11   12 ar
  26   11   45 1
  27   12   13 ar
  28   12   19 1
  29   13   14 ar
  30   13   46 1
  31   14   15 ar
  32   14   34 1
  33   15   18 1
  34   19   20 am
  35   19   47 1
  36   20   21 2
  37   20   22 1
  38   22   28 ar
  39   22   23 ar
  40   23   24 ar
  41   23   48 1
  42   24   25 ar
  43   24   49 1
  44   25   26 ar
  45   25   27 1
  46   26   28 ar
  47   26   50 1
  48   27   29 1
  49   27   30 1
  50   27   31 1
  51   27   32 1
  52   27   33 1
  53   28   51 1

#	End of record

