#	Name: ASD03240661
#	Creating user name:	WinNT
#	Creation time:	15. 06. 2019 20:35

#	Modifying user name:	WinNT
#	Modification time:	15. 06. 2019 20:35

#	Program:	/corina/corina34_cracker 3.40 0067  02.08.2006

@<TRIPOS>MOLECULE
ASD03240661
  63   69    0    0    0
SMALL
NO_CHARGES


@<TRIPOS>ATOM
   1 C1            -0.0931     1.7069    -0.0005 C.ar    
   2 C2            -0.1716     0.3308     0.0600 C.ar    
   3 N3             0.9189    -0.4109     0.1024 N.ar    
   4 C4             2.1319     0.1251     0.0899 C.ar    
   5 C5             2.2857     1.5080     0.0156 C.ar    
   6 C6             1.1556     2.3143    -0.0240 C.ar    
   7 N7             3.2427    -0.7100     0.1727 N.pl3   
   8 C8             4.1109    -0.6310     1.2582 C.ar    
   9 C9             4.8270     0.5437     1.5120 C.ar    
  10 C10            4.6902     1.7077     0.6092 C.2     
  11 N11            3.5549     2.1015    -0.0381 N.pl3   
  12 C12            4.2681    -1.7245     2.0993 C.ar    
  13 C13            5.1189    -1.6455     3.1853 C.ar    
  14 C14            5.8191    -0.4798     3.4441 C.ar    
  15 C15            5.6781     0.6144     2.6146 C.ar    
  16 N16            5.6668     2.5374     0.3016 N.2     
  17 C17            5.2138     3.4769    -0.5427 C.2     
  18 C18            3.8739     3.2229    -0.7771 C.2     
  19 C19            2.9660     3.9971    -1.6455 C.ar    
  20 C20            2.8276     5.3755    -1.4645 C.ar    
  21 C21            2.2453     3.3561    -2.6562 C.ar    
  22 C22            1.3986     4.0861    -3.4639 C.ar    
  23 C23            1.2621     5.4502    -3.2752 C.ar    
  24 C24            1.9772     6.0927    -2.2798 C.ar    
  25 C25            6.0061     4.5876    -1.1197 C.ar    
  26 C26            0.3350     6.2408    -4.1620 C.3     
  27 C27            6.8126     5.3734    -0.2971 C.ar    
  28 N28           -0.6503     5.3981    -4.8527 N.3     
  29 C29           -0.2814     7.4682    -3.4701 C.3     
  30 C30           -0.0731     8.2212    -4.7946 C.3     
  31 C31            1.0628     7.2276    -5.0900 C.3     
  32 C32            7.5487     6.4065    -0.8406 C.ar    
  33 C33            7.4874     6.6634    -2.1984 C.ar    
  34 C34            6.6890     5.8872    -3.0198 C.ar    
  35 C35            5.9529     4.8481    -2.4891 C.ar    
  36 C36            6.8798     5.0954     1.1825 C.3     
  37 H37           -0.9920     2.3045    -0.0338 H       
  38 H38           -1.1403    -0.1465     0.0734 H       
  39 H39            1.2458     3.3894    -0.0723 H       
  40 H40            3.4133    -1.3535    -0.5327 H       
  41 H41            3.7246    -2.6373     1.9050 H       
  42 H42            5.2382    -2.4987     3.8365 H       
  43 H43            6.4778    -0.4261     4.2983 H       
  44 H44            6.2257     1.5227     2.8185 H       
  45 H45            3.3848     5.8781    -0.6878 H       
  46 H46            2.3512     2.2917    -2.8048 H       
  47 H47            0.8411     3.5920    -4.2459 H       
  48 H48            1.8657     7.1575    -2.1381 H       
  49 H49           -0.2016     4.6200    -5.3125 H       
  50 H50           -1.3635     5.0785    -4.2145 H       
  51 H51           -1.3299     7.3377    -3.2023 H       
  52 H52            0.3215     7.8549    -2.6485 H       
  53 H53           -0.9155     8.1381    -5.4813 H       
  54 H54            0.2681     9.2482    -4.6640 H       
  55 H55            2.0332     7.5485    -4.7113 H       
  56 H56            1.0995     6.9029    -6.1299 H       
  57 H57            8.1737     7.0157    -0.2046 H       
  58 H58            8.0648     7.4734    -2.6191 H       
  59 H59            6.6449     6.0929    -4.0791 H       
  60 H60            5.3303     4.2427    -3.1312 H       
  61 H61            7.6822     4.3854     1.3828 H       
  62 H62            7.0747     6.0245     1.7183 H       
  63 H63            5.9311     4.6754     1.5168 H       
@<TRIPOS>BOND
   1    1    2 ar
   2    1    6 ar
   3    1   37 1
   4    2    3 ar
   5    2   38 1
   6    3    4 ar
   7    4    5 ar
   8    4    7 1
   9    5    6 ar
  10    5   11 1
  11    6   39 1
  12    7    8 1
  13    7   40 1
  14    8    9 ar
  15    8   12 ar
  16    9   10 1
  17    9   15 ar
  18   10   11 1
  19   10   16 2
  20   11   18 1
  21   12   13 ar
  22   12   41 1
  23   13   14 ar
  24   13   42 1
  25   14   15 ar
  26   14   43 1
  27   15   44 1
  28   16   17 1
  29   17   18 2
  30   17   25 1
  31   18   19 1
  32   19   20 ar
  33   19   21 ar
  34   20   24 ar
  35   20   45 1
  36   21   22 ar
  37   21   46 1
  38   22   23 ar
  39   22   47 1
  40   23   24 ar
  41   23   26 1
  42   24   48 1
  43   25   27 ar
  44   25   35 ar
  45   26   29 1
  46   26   28 1
  47   26   31 1
  48   27   32 ar
  49   27   36 1
  50   28   49 1
  51   28   50 1
  52   29   30 1
  53   29   51 1
  54   29   52 1
  55   30   31 1
  56   30   53 1
  57   30   54 1
  58   31   55 1
  59   31   56 1
  60   32   33 ar
  61   32   57 1
  62   33   34 ar
  63   33   58 1
  64   34   35 ar
  65   34   59 1
  66   35   60 1
  67   36   61 1
  68   36   62 1
  69   36   63 1

#	End of record

