#	Name: ASD00069011
#	Creating user name:	WinNT
#	Creation time:	15. 06. 2019 18:29

#	Modifying user name:	WinNT
#	Modification time:	15. 06. 2019 18:29

#	Program:	/corina/corina34_cracker 3.40 0067  02.08.2006

@<TRIPOS>MOLECULE
ASD00069011
  52   57    0    0    0
SMALL
NO_CHARGES


@<TRIPOS>ATOM
   1 C1             0.3637     1.3684     1.0233 C.ar    
   2 C2             0.4521    -0.0148     1.0892 C.ar    
   3 C3             1.4879    -0.6796     0.4591 C.ar    
   4 C4             2.4510     0.0533    -0.2486 C.ar    
   5 C5             2.3556     1.4540    -0.3114 C.ar    
   6 C6             1.3023     2.1007     0.3319 C.ar    
   7 C7             3.6483    -0.3139    -1.0131 C.2     
   8 N8             4.1818     0.7963    -1.4686 N.2     
   9 N9             3.4185     1.8941    -1.0592 N.pl3   
  10 C10            4.1598    -1.6817    -1.2304 C.2     
  11 N11            3.5401    -2.7832    -0.8820 N.2     
  12 C12            4.2904    -3.8580    -1.2296 C.ar    
  13 C13            5.4602    -3.3691    -1.8382 C.ar    
  14 N14            5.3519    -1.9916    -1.8324 N.pl3   
  15 C15            4.1081    -5.2387    -1.0949 C.ar    
  16 C16            5.0622    -6.1007    -1.5529 C.ar    
  17 C17            6.2230    -5.6191    -2.1562 C.ar    
  18 C18            6.4225    -4.2557    -2.2990 C.ar    
  19 N19            7.1901    -6.5162    -2.6192 N.3     
  20 C20            6.7818    -7.9063    -2.3697 C.3     
  21 C21            7.8384    -8.8537    -2.9441 C.3     
  22 O22            9.1097    -8.5503    -2.3635 O.3     
  23 C23            9.5385    -7.2045    -2.5877 C.3     
  24 C24            8.4992    -6.2404    -2.0097 C.3     
  25 N25            1.5744    -2.0724     0.5277 N.am    
  26 C26            0.4802    -2.8273     0.3060 C.2     
  27 C27            0.5929    -4.3299     0.2852 C.3     
  28 O28           -0.5953    -2.2973     0.1231 O.2     
  29 C29           -0.6852    -5.1308     0.0285 C.3     
  30 C30            0.3887    -5.0352    -1.0571 C.3     
  31 F31            0.1117    -4.2358    -2.1712 F       
  32 F32            1.1554    -6.1779    -1.3096 F       
  33 H33           -0.4527     1.8755     1.5159 H       
  34 H34           -0.2920    -0.5750     1.6358 H       
  35 H35            1.2222     3.1769     0.2882 H       
  36 H36            3.6102     2.8211    -1.2709 H       
  37 H37            6.0009    -1.3616    -2.1827 H       
  38 H38            3.2128    -5.6223    -0.6284 H       
  39 H39            4.9167    -7.1656    -1.4466 H       
  40 H40            7.3226    -3.8850    -2.7667 H       
  41 H41            6.6899    -8.0715    -1.2962 H       
  42 H42            5.8225    -8.0959    -2.8512 H       
  43 H43            7.5685    -9.8838    -2.7114 H       
  44 H44            7.8923    -8.7262    -4.0253 H       
  45 H45           10.4983    -7.0419    -2.0973 H       
  46 H46            9.6419    -7.0291    -3.6585 H       
  47 H47            8.7936    -5.2139    -2.2285 H       
  48 H48            8.4347    -6.3790    -0.9305 H       
  49 H49            2.4221    -2.4961     0.7349 H       
  50 H50            1.3244    -4.7560     0.9719 H       
  51 H51           -0.7944    -6.0839     0.5459 H       
  52 H52           -1.6076    -4.5708    -0.1254 H       
@<TRIPOS>BOND
   1    1    2 ar
   2    1    6 ar
   3    1   33 1
   4    2    3 ar
   5    2   34 1
   6    3    4 ar
   7    3   25 1
   8    4    5 ar
   9    4    7 1
  10    5    6 ar
  11    5    9 1
  12    6   35 1
  13    7    8 2
  14    7   10 1
  15    8    9 1
  16    9   36 1
  17   10   11 2
  18   10   14 1
  19   11   12 1
  20   12   13 ar
  21   12   15 ar
  22   13   14 1
  23   13   18 ar
  24   14   37 1
  25   15   16 ar
  26   15   38 1
  27   16   17 ar
  28   16   39 1
  29   17   18 ar
  30   17   19 1
  31   18   40 1
  32   19   20 1
  33   19   24 1
  34   20   21 1
  35   20   41 1
  36   20   42 1
  37   21   22 1
  38   21   43 1
  39   21   44 1
  40   22   23 1
  41   23   24 1
  42   23   45 1
  43   23   46 1
  44   24   47 1
  45   24   48 1
  46   25   26 am
  47   25   49 1
  48   26   27 1
  49   26   28 2
  50   27   29 1
  51   27   30 1
  52   27   50 1
  53   29   30 1
  54   29   51 1
  55   29   52 1
  56   30   31 1
  57   30   32 1

#	End of record

