#	Name: ASD08170324
#	Creating user name:	WinNT
#	Creation time:	15. 06. 2019 21:17

#	Modifying user name:	WinNT
#	Modification time:	15. 06. 2019 21:17

#	Program:	/corina/corina34_cracker 3.40 0067  02.08.2006

@<TRIPOS>MOLECULE
ASD08170324
  66   69    0    0    0
SMALL
NO_CHARGES


@<TRIPOS>ATOM
   1 C1            -0.0155     1.2910     0.0091 C.2     
   2 N2             0.0021    -0.0041     0.0020 N.2     
   3 N3            -1.1192    -0.5842     0.0100 N.2     
   4 C4            -2.1833     0.1604     0.0246 C.2     
   5 S5            -1.7028     1.8047     0.0357 S.3     
   6 C6             1.1892     2.1964     0.0025 C.3     
   7 C7             3.1995     3.7447    -2.8935 C.3     
   8 C8             4.4042     4.6501    -2.9002 C.2     
   9 S9             4.3803     6.4138    -2.8899 S.3     
  10 C10            6.0933     6.4179    -2.9060 C.2     
  11 N11            6.5124     5.1885    -2.9170 N.2     
  12 N12            5.6433     4.2729    -2.9088 N.2     
  13 N13            6.9013     7.5498    -2.9076 N.am    
  14 C14            8.2428     7.4202    -2.9209 C.2     
  15 C15            9.1183     8.6468    -2.9226 C.3     
  16 O16            8.7453     6.3164    -2.9315 O.2     
  17 C17            8.9062     9.4230    -4.2238 C.3     
  18 C18            9.6873    10.7108    -4.1736 C.ar    
  19 C19           10.9898    10.7476    -4.6349 C.ar    
  20 N20           -3.4954    -0.3008     0.0352 N.am    
  21 C21           -3.7441    -1.6254     0.0311 C.2     
  22 C22           -5.1658    -2.1252     0.0425 C.3     
  23 O23           -2.8237    -2.4152     0.0182 O.2     
  24 C24           -5.8362    -1.7256     1.3585 C.3     
  25 C25           -7.2910    -2.1168     1.3201 C.ar    
  26 C26           -7.6832    -3.3648     1.7671 C.ar    
  27 C27            1.5828     2.5110    -1.4422 C.3     
  28 C28            2.8059     3.4301    -1.4489 C.3     
  29 O29           10.4885     8.2541    -2.8202 O.3     
  30 C30            9.0993    11.8567    -3.6714 C.ar    
  31 C31            9.8158    13.0379    -3.6253 C.ar    
  32 C32           11.1204    13.0733    -4.0810 C.ar    
  33 C33           11.7063    11.9288    -4.5888 C.ar    
  34 O34           -5.1713    -3.5487    -0.0819 O.3     
  35 C35           -9.0177    -3.7236     1.7318 C.ar    
  36 C36           -9.9601    -2.8344     1.2501 C.ar    
  37 C37           -9.5680    -1.5861     0.8040 C.ar    
  38 C38           -8.2340    -1.2256     0.8433 C.ar    
  39 H39            0.9501     3.1232     0.5240 H       
  40 H40            2.0193     1.7002     0.5054 H       
  41 H41            2.3694     4.2409    -3.3964 H       
  42 H42            3.4386     2.8179    -3.4151 H       
  43 H43            6.4994     8.4326    -2.8990 H       
  44 H44            8.8576     9.2804    -2.0749 H       
  45 H45            9.2501     8.8221    -5.0656 H       
  46 H46            7.8461     9.6456    -4.3454 H       
  47 H47           11.4478     9.8533    -5.0311 H       
  48 H48           -4.2314     0.3309     0.0455 H       
  49 H49           -5.7122    -1.6854    -0.7918 H       
  50 H50           -5.3444    -2.2362     2.1865 H       
  51 H51           -5.7534    -0.6475     1.4958 H       
  52 H52           -6.9470    -4.0595     2.1435 H       
  53 H53            1.8219     1.5842    -1.9637 H       
  54 H54            0.7527     3.0071    -1.9450 H       
  55 H55            3.6360     2.9340    -0.9460 H       
  56 H56            2.5668     4.3569    -0.9274 H       
  57 H57           10.7902     7.6871    -3.5431 H       
  58 H58            8.0800    11.8291    -3.3154 H       
  59 H59            9.3562    13.9333    -3.2336 H       
  60 H60           11.6800    13.9962    -4.0453 H       
  61 H61           12.7256    11.9564    -4.9448 H       
  62 H62           -4.7019    -4.0074     0.6283 H       
  63 H63           -9.3240    -4.6989     2.0804 H       
  64 H64          -11.0026    -3.1150     1.2219 H       
  65 H65          -10.3042    -0.8915     0.4273 H       
  66 H66           -7.9277    -0.2504     0.4947 H       
@<TRIPOS>BOND
   1    1    2 2
   2    1    6 1
   3    1    5 1
   4    2    3 1
   5    3    4 2
   6    4    5 1
   7    4   20 1
   8    6   27 1
   9    6   39 1
  10    6   40 1
  11    7    8 1
  12    7   28 1
  13    7   41 1
  14    7   42 1
  15    8    9 1
  16    8   12 2
  17    9   10 1
  18   10   11 2
  19   10   13 1
  20   11   12 1
  21   13   14 am
  22   13   43 1
  23   14   15 1
  24   14   16 2
  25   15   17 1
  26   15   29 1
  27   15   44 1
  28   17   18 1
  29   17   45 1
  30   17   46 1
  31   18   19 ar
  32   18   30 ar
  33   19   33 ar
  34   19   47 1
  35   20   21 am
  36   20   48 1
  37   21   22 1
  38   21   23 2
  39   22   24 1
  40   22   34 1
  41   22   49 1
  42   24   25 1
  43   24   50 1
  44   24   51 1
  45   25   26 ar
  46   25   38 ar
  47   26   35 ar
  48   26   52 1
  49   27   28 1
  50   27   53 1
  51   27   54 1
  52   28   55 1
  53   28   56 1
  54   29   57 1
  55   30   31 ar
  56   30   58 1
  57   31   32 ar
  58   31   59 1
  59   32   33 ar
  60   32   60 1
  61   33   61 1
  62   34   62 1
  63   35   36 ar
  64   35   63 1
  65   36   37 ar
  66   36   64 1
  67   37   38 ar
  68   37   65 1
  69   38   66 1

#	End of record

