#	Name: ASD01884153
#	Creating user name:	WinNT
#	Creation time:	15. 06. 2019 19:47

#	Modifying user name:	WinNT
#	Modification time:	15. 06. 2019 19:47

#	Program:	/corina/corina34_cracker 3.40 0067  02.08.2006

@<TRIPOS>MOLECULE
ASD01884153
  27   29    0    0    0
SMALL
NO_CHARGES


@<TRIPOS>ATOM
   1 C1            -0.0164     1.3574     0.0095 C.2     
   2 C2             0.0021    -0.0041     0.0020 C.2     
   3 C3            -1.2099    -0.7179     0.0097 C.2     
   4 C4            -2.3881    -0.0606     0.0244 C.2     
   5 N5            -2.4207     1.3029     0.0321 N.pl3   
   6 C6            -1.2541     2.0276     0.0308 C.2     
   7 N7            -1.5970     3.3057     0.0393 N.2     
   8 Cl8            1.5149    -0.8553    -0.0175 Cl      
   9 C9            -3.4279     2.2186     0.0465 C.2     
  10 N10           -2.8798     3.4061     0.0457 N.2     
  11 C11           -4.9047     1.9188     0.0589 C.3     
  12 C12           -5.3909     1.8095     1.5055 C.3     
  13 C13           -6.8922     1.6239     1.7341 C.3     
  14 C14           -5.9325     0.4556     1.9684 C.3     
  15 C15            1.2730     2.1374     0.0014 C.3     
  16 F16            2.3546     1.2503    -0.0137 F       
  17 F17            1.3198     2.9492    -1.1371 F       
  18 F18            1.3416     2.9369     1.1474 F       
  19 H19           -1.1974    -1.7978     0.0034 H       
  20 H20           -3.3128    -0.6186     0.0299 H       
  21 H21           -5.4426     2.7215    -0.4455 H       
  22 H22           -5.0886     0.9771    -0.4583 H       
  23 H23           -4.8412     2.4073     2.2326 H       
  24 H24           -7.3303     2.0992     2.6117 H       
  25 H25           -7.5337     1.5796     0.8539 H       
  26 H26           -5.9425    -0.3574     1.2423 H       
  27 H27           -5.7391     0.1622     3.0002 H       
@<TRIPOS>BOND
   1    1    2 2
   2    1   15 1
   3    1    6 1
   4    2    3 1
   5    2    8 1
   6    3    4 2
   7    3   19 1
   8    4    5 1
   9    4   20 1
  10    5    6 1
  11    5    9 1
  12    6    7 2
  13    7   10 1
  14    9   10 2
  15    9   11 1
  16   11   12 1
  17   11   21 1
  18   11   22 1
  19   12   13 1
  20   12   14 1
  21   12   23 1
  22   13   14 1
  23   13   24 1
  24   13   25 1
  25   14   26 1
  26   14   27 1
  27   15   16 1
  28   15   17 1
  29   15   18 1

#	End of record

