#	Name: ASD03331559
#	Creating user name:	WinNT
#	Creation time:	15. 06. 2019 20:39

#	Modifying user name:	WinNT
#	Modification time:	15. 06. 2019 20:39

#	Program:	/corina/corina34_cracker 3.40 0067  02.08.2006

@<TRIPOS>MOLECULE
ASD03331559
  65   67    0    0    0
SMALL
NO_CHARGES


@<TRIPOS>ATOM
   1 C1             0.1903     0.8372    -0.3737 C.ar    
   2 C2             0.3492    -0.5488    -0.3799 C.ar    
   3 C3             1.3745     1.7194    -0.2860 C.2     
   4 N4             1.4133     3.0363    -0.6408 N.pl3   
   5 C5             2.6864     3.4733    -0.4322 C.2     
   6 C6             3.3941     2.4275     0.0720 C.2     
   7 N7             2.5606     1.3667     0.1513 N.2     
   8 C8             0.3003     3.8514    -1.1336 C.3     
   9 C9             0.8487     4.9853    -2.0034 C.3     
  10 O10            1.1672     6.1140    -1.1874 O.3     
  11 C11            2.1678     5.8765    -0.2012 C.3     
  12 C12            3.1823     4.8618    -0.7387 C.3     
  13 C13            4.8136     2.4486     0.4668 C.2     
  14 O14            5.4615     3.4715     0.3522 O.2     
  15 N15            5.3940     1.3344     0.9549 N.am    
  16 C16            6.8053     1.3554     1.3474 C.3     
  17 C17            7.3704    -0.0392     1.2648 C.2     
  18 N18            8.6857    -0.2206     1.0332 N.am    
  19 O19            6.6417    -0.9982     1.4067 O.2     
  20 C20            6.9278     1.8712     2.7826 C.3     
  21 C21            6.0556     1.0193     3.7069 C.3     
  22 C22            9.2186    -1.5739     0.8570 C.3     
  23 C23           -0.7600    -1.3678    -0.4624 C.ar    
  24 C24           -2.0297    -0.8131    -0.5395 C.ar    
  25 C25           -2.1908     0.5629    -0.5336 C.ar    
  26 C26           -1.0888     1.3888    -0.4563 C.ar    
  27 C27            8.3872     1.7823     3.2336 C.3     
  28 C28            6.4634     3.3278     2.8425 C.3     
  29 F29           -0.6087    -2.7103    -0.4686 F       
  30 F30           -3.1122    -1.6174    -0.6210 F       
  31 C31            8.5372    -2.2383    -0.3410 C.3     
  32 C32           10.7266    -1.4999     0.6096 C.3     
  33 C33            8.9484    -2.3966     2.1183 C.3     
  34 H34            1.3374    -0.9805    -0.3206 H       
  35 H35           -0.3709     3.2301    -1.7266 H       
  36 H36           -0.2445     4.2722    -0.2884 H       
  37 H37            1.7477     4.6450    -2.5173 H       
  38 H38            0.0984     5.2716    -2.7404 H       
  39 H39            2.6775     6.8114     0.0320 H       
  40 H40            1.7019     5.4814     0.7016 H       
  41 H41            4.1474     5.0198    -0.2575 H       
  42 H42            3.2847     4.9835    -1.8171 H       
  43 H43            4.8772     0.5186     1.0463 H       
  44 H44            7.3592     2.0122     0.6767 H       
  45 H45            9.2795     0.5448     0.9832 H       
  46 H46            6.3865    -0.0183     3.6643 H       
  47 H47            6.1429     1.3868     4.7294 H       
  48 H48            5.0159     1.0827     3.3856 H       
  49 H49           -3.1810     0.9898    -0.5937 H       
  50 H50           -1.2163     2.4613    -0.4518 H       
  51 H51            8.9990     2.4397     2.6159 H       
  52 H52            8.4643     2.0883     4.2769 H       
  53 H53            8.7378     0.7555     3.1292 H       
  54 H54            5.4237     3.3911     2.5212 H       
  55 H55            6.5507     3.6952     3.8649 H       
  56 H56            7.0848     3.9347     2.1839 H       
  57 H57            8.7297    -1.6521    -1.2396 H       
  58 H58            8.9337    -3.2451    -0.4721 H       
  59 H59            7.4628    -2.2910    -0.1648 H       
  60 H60           11.2120    -1.0266     1.4631 H       
  61 H61           11.1231    -2.5068     0.4785 H       
  62 H62           10.9191    -0.9138    -0.2890 H       
  63 H63            7.8740    -2.4493     2.2946 H       
  64 H64            9.3448    -3.4035     1.9872 H       
  65 H65            9.4338    -1.9233     2.9718 H       
@<TRIPOS>BOND
   1    1    2 ar
   2    1    3 1
   3    1   26 ar
   4    2   23 ar
   5    2   34 1
   6    3    4 1
   7    3    7 2
   8    4    5 1
   9    4    8 1
  10    5    6 2
  11    5   12 1
  12    6    7 1
  13    6   13 1
  14    8    9 1
  15    8   35 1
  16    8   36 1
  17    9   10 1
  18    9   37 1
  19    9   38 1
  20   10   11 1
  21   11   12 1
  22   11   39 1
  23   11   40 1
  24   12   41 1
  25   12   42 1
  26   13   14 2
  27   13   15 am
  28   15   16 1
  29   15   43 1
  30   16   20 1
  31   16   17 1
  32   16   44 1
  33   17   18 am
  34   17   19 2
  35   18   22 1
  36   18   45 1
  37   20   21 1
  38   20   27 1
  39   20   28 1
  40   21   46 1
  41   21   47 1
  42   21   48 1
  43   22   31 1
  44   22   33 1
  45   22   32 1
  46   23   24 ar
  47   23   29 1
  48   24   25 ar
  49   24   30 1
  50   25   26 ar
  51   25   49 1
  52   26   50 1
  53   27   51 1
  54   27   52 1
  55   27   53 1
  56   28   54 1
  57   28   55 1
  58   28   56 1
  59   31   57 1
  60   31   58 1
  61   31   59 1
  62   32   60 1
  63   32   61 1
  64   32   62 1
  65   33   63 1
  66   33   64 1
  67   33   65 1

#	End of record

