#	Name: ASD04882037
#	Creating user name:	WinNT
#	Creation time:	15. 06. 2019 20:53

#	Modifying user name:	WinNT
#	Modification time:	15. 06. 2019 20:53

#	Program:	/corina/corina34_cracker 3.40 0067  02.08.2006

@<TRIPOS>MOLECULE
ASD04882037
  78   82    0    0    0
SMALL
NO_CHARGES


@<TRIPOS>ATOM
   1 C1             1.5169     1.4359     1.7941 C.ar    
   2 C2             1.4794     0.0558     1.8133 C.ar    
   3 C3             2.6604    -0.6683     1.9180 C.ar    
   4 C4             3.8754    -0.0007     2.0031 C.ar    
   5 C5             3.9058     1.3801     1.9833 C.ar    
   6 C6             2.7285     2.0976     1.8791 C.ar    
   7 C7             5.1590    -0.7819     2.1173 C.3     
   8 N8             2.6261    -2.0645     1.9382 N.3     
   9 C9             3.2417    -2.6240     0.7267 C.3     
  10 C10            3.2558    -4.1514     0.8237 C.3     
  11 N11            1.8802    -4.6420     0.9866 N.3     
  12 C12            1.2645    -4.0825     2.1981 C.3     
  13 C13            1.2504    -2.5551     2.1011 C.3     
  14 C14            1.8459    -6.0338     1.0067 C.ar    
  15 C15            2.1836    -6.7569    -0.1407 C.ar    
  16 C16            2.1499    -8.1385    -0.1203 C.ar    
  17 C17            1.7779    -8.8082     1.0487 C.ar    
  18 C18            1.4415    -8.0790     2.1927 C.ar    
  19 C19            1.4814    -6.7025     2.1698 C.ar    
  20 C20            1.7401   -10.2827     1.0750 C.2     
  21 N21            1.3813   -10.9276     2.2028 N.am    
  22 O22            2.0326   -10.9163     0.0792 O.2     
  23 C23            1.3437   -12.3919     2.2289 C.3     
  24 C24            0.9086   -12.8662     3.6169 C.3     
  25 C25            0.8693   -14.3955     3.6442 C.3     
  26 N26            0.4527   -14.8496     4.9733 N.am    
  27 C27           -0.9411   -15.0829     5.3694 C.3     
  28 C28           -0.9309   -15.1142     6.9138 C.3     
  29 C29            0.5245   -15.5439     7.2109 C.3     
  30 C30            1.2982   -15.1117     5.9848 C.2     
  31 O31            2.5052   -15.0093     5.9255 O.2     
  32 N32            2.5554    -6.0818    -1.3107 N.am    
  33 C33            3.3607    -6.6831    -2.2087 C.2     
  34 O34            3.7007    -7.8384    -2.0424 O.2     
  35 C35            3.8305    -5.9378    -3.3958 C.ar    
  36 C36            4.6629    -6.5579    -4.3249 C.ar    
  37 C37            3.4361    -4.6119    -3.5913 C.ar    
  38 C38            3.8738    -3.9142    -4.6993 C.ar    
  39 C39            4.7033    -4.5208    -5.6218 C.ar    
  40 C40            5.1013    -5.8478    -5.4415 C.ar    
  41 C41            5.9619    -6.4754    -6.3987 C.1     
  42 N42            6.6446    -6.9732    -7.1580 N.1     
  43 H43            0.5995     1.9993     1.7082 H       
  44 H44            0.5329    -0.4603     1.7474 H       
  45 H45            4.8501     1.8998     2.0494 H       
  46 H46            2.7550     3.1771     1.8635 H       
  47 H47            5.5089    -1.0535     1.1214 H       
  48 H48            5.9133    -0.1710     2.6133 H       
  49 H49            4.9834    -1.6863     2.6999 H       
  50 H50            2.6656    -2.3204    -0.1474 H       
  51 H51            4.2636    -2.2560     0.6349 H       
  52 H52            3.6856    -4.5696    -0.0865 H       
  53 H53            3.8545    -4.4557     1.6822 H       
  54 H54            0.2427    -4.4505     2.2899 H       
  55 H55            1.8407    -4.3861     3.0722 H       
  56 H56            0.8206    -2.1369     3.0113 H       
  57 H57            0.6517    -2.2508     1.2426 H       
  58 H58            2.4101    -8.6993    -1.0059 H       
  59 H59            1.1539    -8.5954     3.0965 H       
  60 H60            1.2213    -6.1412     3.0550 H       
  61 H61            1.1480   -10.4222     2.9971 H       
  62 H62            0.6340   -12.7505     1.4834 H       
  63 H63            2.3355   -12.7849     2.0050 H       
  64 H64            1.6183   -12.5076     4.3625 H       
  65 H65           -0.0832   -12.4732     3.8408 H       
  66 H66            0.1596   -14.7540     2.8987 H       
  67 H67            1.8611   -14.7884     3.4203 H       
  68 H68           -1.5755   -14.2715     5.0127 H       
  69 H69           -1.2906   -16.0371     4.9751 H       
  70 H70           -1.1376   -14.1262     7.3254 H       
  71 H71           -1.6400   -15.8496     7.2938 H       
  72 H72            0.8983   -15.0361     8.1000 H       
  73 H73            0.5853   -16.6252     7.3341 H       
  74 H74            2.2333    -5.1816    -1.4744 H       
  75 H75            4.9674    -7.5840    -4.1807 H       
  76 H76            2.7869    -4.1316    -2.8742 H       
  77 H77            3.5658    -2.8895    -4.8454 H       
  78 H78            5.0415    -3.9695    -6.4867 H       
@<TRIPOS>BOND
   1    1    2 ar
   2    1    6 ar
   3    1   43 1
   4    2    3 ar
   5    2   44 1
   6    3    4 ar
   7    3    8 1
   8    4    5 ar
   9    4    7 1
  10    5    6 ar
  11    5   45 1
  12    6   46 1
  13    7   47 1
  14    7   48 1
  15    7   49 1
  16    8    9 1
  17    8   13 1
  18    9   10 1
  19    9   50 1
  20    9   51 1
  21   10   11 1
  22   10   52 1
  23   10   53 1
  24   11   12 1
  25   11   14 1
  26   12   13 1
  27   12   54 1
  28   12   55 1
  29   13   56 1
  30   13   57 1
  31   14   15 ar
  32   14   19 ar
  33   15   16 ar
  34   15   32 1
  35   16   17 ar
  36   16   58 1
  37   17   18 ar
  38   17   20 1
  39   18   19 ar
  40   18   59 1
  41   19   60 1
  42   20   21 am
  43   20   22 2
  44   21   23 1
  45   21   61 1
  46   23   24 1
  47   23   62 1
  48   23   63 1
  49   24   25 1
  50   24   64 1
  51   24   65 1
  52   25   26 1
  53   25   66 1
  54   25   67 1
  55   26   27 1
  56   26   30 am
  57   27   28 1
  58   27   68 1
  59   27   69 1
  60   28   29 1
  61   28   70 1
  62   28   71 1
  63   29   30 1
  64   29   72 1
  65   29   73 1
  66   30   31 2
  67   32   33 am
  68   32   74 1
  69   33   34 2
  70   33   35 1
  71   35   36 ar
  72   35   37 ar
  73   36   40 ar
  74   36   75 1
  75   37   38 ar
  76   37   76 1
  77   38   39 ar
  78   38   77 1
  79   39   40 ar
  80   39   78 1
  81   40   41 1
  82   41   42 3

#	End of record

