#	Name: ASD03731157
#	Creating user name:	WinNT
#	Creation time:	15. 06. 2019 20:45

#	Modifying user name:	WinNT
#	Modification time:	15. 06. 2019 20:45

#	Program:	/corina/corina34_cracker 3.40 0067  02.08.2006

@<TRIPOS>MOLECULE
ASD03731157
  68   73    0    0    0
SMALL
NO_CHARGES


@<TRIPOS>ATOM
   1 O1             0.2514     1.5437    -0.4888 O.3     
   2 C2             0.2767     0.1065    -0.5719 C.3     
   3 O3             1.5986    -0.1851    -1.0621 O.3     
   4 C4             2.3791     0.8576    -0.6514 C.ar    
   5 C5             1.5503     1.9206    -0.3001 C.ar    
   6 C6             3.7523     0.9872    -0.5466 C.ar    
   7 C7             4.3156     2.1760    -0.0928 C.ar    
   8 C8             3.4779     3.2338     0.2474 C.ar    
   9 C9             2.1080     3.1055     0.1499 C.ar    
  10 O10            5.6259     2.5024     0.0987 O.3     
  11 C11            4.3712     4.3705     0.6667 C.3     
  12 C12            5.7540     3.9359     0.1624 C.3     
  13 N13            3.7176     6.5173     1.1009 N.am    
  14 C14            3.9433     5.6799     0.0690 C.2     
  15 C15            4.3594     4.5879     2.1507 C.ar    
  16 C16            4.6504     3.7862     3.2319 C.ar    
  17 C17            4.5427     4.2891     4.5162 C.ar    
  18 C18            4.1423     5.5984     4.7113 C.ar    
  19 C19            3.8489     6.4052     3.6317 C.ar    
  20 C20            3.9548     5.9075     2.3352 C.ar    
  21 O21            3.8246     5.9343    -1.1110 O.2     
  22 C22            3.2757     7.9054     0.9461 C.3     
  23 C23            1.7465     7.9565     0.9426 C.3     
  24 N24           -0.2732    11.6358     1.7501 N.3     
  25 C25           -0.7007    10.9024     0.5519 C.3     
  26 C26           -0.2402     9.4464     0.6521 C.3     
  27 C27            1.2850     9.4062     0.7809 C.3     
  28 C28            1.7072    10.2176     2.0089 C.3     
  29 C29            1.1903    11.6513     1.8693 C.3     
  30 C30           -0.8161    13.0008     1.7533 C.3     
  31 C31           -2.3528    12.9568     1.8199 C.3     
  32 C32           -2.7588    13.6858     3.1174 C.3     
  33 C33           -1.5608    14.6202     3.4188 C.3     
  34 C34           -0.3419    13.7551     3.0127 C.3     
  35 H35            0.1270    -0.3367     0.4126 H       
  36 H36           -0.4787    -0.2499    -1.2723 H       
  37 H37            4.3915     0.1601    -0.8183 H       
  38 H38            1.4687     3.9315     0.4246 H       
  39 H39            6.5321     4.2241     0.8693 H       
  40 H40            5.9539     4.3510    -0.8255 H       
  41 H41            4.9625     2.7639     3.0771 H       
  42 H42            4.7705     3.6606     5.3645 H       
  43 H43            4.0586     5.9910     5.7139 H       
  44 H44            3.5361     7.4264     3.7923 H       
  45 H45            3.6573     8.5027     1.7741 H       
  46 H46            3.6547     8.3045     0.0052 H       
  47 H47            1.3649     7.3592     0.1146 H       
  48 H48            1.3675     7.5574     1.8835 H       
  49 H49           -1.7874    10.9351     0.4744 H       
  50 H50           -0.2597    11.3627    -0.3323 H       
  51 H51           -0.6918     8.9814     1.5285 H       
  52 H52           -0.5440     8.9060    -0.2445 H       
  53 H53            1.7375     9.8349    -0.1133 H       
  54 H54            1.2863     9.7648     2.9066 H       
  55 H55            2.7947    10.2284     2.0816 H       
  56 H56            1.6224    12.1081     0.9789 H       
  57 H57            1.4770    12.2280     2.7487 H       
  58 H58           -0.4963    13.5317     0.8567 H       
  59 H59           -2.7788    13.4670     0.9560 H       
  60 H60           -2.6957    11.9226     1.8498 H       
  61 H61           -3.6666    14.2682     2.9597 H       
  62 H62           -2.8988    12.9714     3.9286 H       
  63 H63           -1.6131    15.5236     2.8110 H       
  64 H64           -1.5220    14.8687     4.4794 H       
  65 H65           -0.0917    13.0519     3.8070 H       
  66 H66            0.5140    14.3881     2.7786 H       
  67 Cl67          11.5321    20.5236    10.7139 Cl      
  68 H68           11.5321    21.8936    10.7139 H       
@<TRIPOS>BOND
   1    1    2 1
   2    1    5 1
   3    2    3 1
   4    2   35 1
   5    2   36 1
   6    3    4 1
   7    4    5 ar
   8    4    6 ar
   9    5    9 ar
  10    6    7 ar
  11    6   37 1
  12    7    8 ar
  13    7   10 1
  14    8    9 ar
  15    8   11 1
  16    9   38 1
  17   10   12 1
  18   11   12 1
  19   11   14 1
  20   11   15 1
  21   12   39 1
  22   12   40 1
  23   13   14 am
  24   13   20 1
  25   13   22 1
  26   14   21 2
  27   15   16 ar
  28   15   20 ar
  29   16   17 ar
  30   16   41 1
  31   17   18 ar
  32   17   42 1
  33   18   19 ar
  34   18   43 1
  35   19   20 ar
  36   19   44 1
  37   22   23 1
  38   22   45 1
  39   22   46 1
  40   23   27 1
  41   23   47 1
  42   23   48 1
  43   24   25 1
  44   24   29 1
  45   24   30 1
  46   25   26 1
  47   25   49 1
  48   25   50 1
  49   26   27 1
  50   26   51 1
  51   26   52 1
  52   27   28 1
  53   27   53 1
  54   28   29 1
  55   28   54 1
  56   28   55 1
  57   29   56 1
  58   29   57 1
  59   30   31 1
  60   30   34 1
  61   30   58 1
  62   31   32 1
  63   31   59 1
  64   31   60 1
  65   32   33 1
  66   32   61 1
  67   32   62 1
  68   33   34 1
  69   33   63 1
  70   33   64 1
  71   34   65 1
  72   34   66 1
  73   67   68 1

#	End of record

