#	Name: ASD01148654
#	Creating user name:	WinNT
#	Creation time:	15. 06. 2019 19:02

#	Modifying user name:	WinNT
#	Modification time:	15. 06. 2019 19:02

#	Program:	/corina/corina34_cracker 3.40 0067  02.08.2006

@<TRIPOS>MOLECULE
ASD01148654
  25   25    0    0    0
SMALL
NO_CHARGES


@<TRIPOS>ATOM
   1 C1            -0.0167     1.3793     0.0096 C.ar    
   2 C2             0.0021    -0.0041     0.0020 C.ar    
   3 N3             1.1455    -0.6630    -0.0120 N.ar    
   4 C4             2.3062    -0.0370    -0.0197 C.ar    
   5 C5             2.3651     1.3436    -0.0133 C.ar    
   6 C6             1.1845     2.0709     0.0019 C.ar    
   7 C7             3.6961     2.0503    -0.0217 C.3     
   8 S8             4.6444     1.5711     1.4486 S.o2    
   9 Cl9           -1.4950    -0.8829     0.0116 Cl      
  10 C10            4.4735     1.6587    -1.2799 C.3     
  11 O11            4.9341     0.1812     1.5090 O.2     
  12 N12            5.9505     2.2937     1.3965 N.am    
  13 C13            3.7375     2.1857     2.8944 C.3     
  14 C14            6.8622     2.1171     2.3832 C.1     
  15 N15            7.6266     1.9691     3.2104 N.1     
  16 H16           -0.9553     1.9135     0.0170 H       
  17 H17            3.2215    -0.6101    -0.0308 H       
  18 H18            1.2006     3.1508     0.0072 H       
  19 H19            3.5352     3.1283    -0.0148 H       
  20 H20            4.6344     0.5806    -1.2868 H       
  21 H21            3.9037     1.9466    -2.1634 H       
  22 H22            5.4362     2.1698    -1.2860 H       
  23 H23            2.7874     1.6580     2.9786 H       
  24 H24            4.3290     2.0148     3.7939 H       
  25 H25            3.5511     3.2535     2.7795 H       
@<TRIPOS>BOND
   1    1    2 ar
   2    1    6 ar
   3    1   16 1
   4    2    3 ar
   5    2    9 1
   6    3    4 ar
   7    4    5 ar
   8    4   17 1
   9    5    6 ar
  10    5    7 1
  11    6   18 1
  12    7    8 1
  13    7   10 1
  14    7   19 1
  15    8   11 2
  16    8   12 2
  17    8   13 1
  18   10   20 1
  19   10   21 1
  20   10   22 1
  21   12   14 1
  22   13   23 1
  23   13   24 1
  24   13   25 1
  25   14   15 3

#	End of record

