#	Name: ASD01882281
#	Creating user name:	WinNT
#	Creation time:	15. 06. 2019 19:44

#	Modifying user name:	WinNT
#	Modification time:	15. 06. 2019 19:44

#	Program:	/corina/corina34_cracker 3.40 0067  02.08.2006

@<TRIPOS>MOLECULE
ASD01882281
  35   37    0    0    0
SMALL
NO_CHARGES


@<TRIPOS>ATOM
   1 C1            -0.0187     1.5267     0.0104 C.3     
   2 C2             0.0021    -0.0041     0.0020 C.3     
   3 C3             0.7722    -0.4897    -1.2298 C.3     
   4 C4             2.1813     0.1106    -1.2068 C.3     
   5 C5             2.0763     1.6370    -1.1517 C.3     
   6 O6             1.3225     2.0200     0.0003 O.3     
   7 C7             0.8646    -1.9937    -1.2060 C.ar    
   8 C8             0.3244    -2.7348    -2.2406 C.ar    
   9 C9             0.4077    -4.1136    -2.2211 C.ar    
  10 C10            1.0342    -4.7546    -1.1622 C.ar    
  11 C11            1.5755    -4.0087    -0.1252 C.ar    
  12 C12            1.4945    -2.6298    -0.1522 C.ar    
  13 O13            1.1172    -6.1109    -1.1405 O.3     
  14 C14            1.7761    -6.7027    -0.0190 C.3     
  15 O15            3.0317    -8.8855    -0.3008 O.3     
  16 C16            1.7711    -8.2252    -0.1697 C.3     
  17 C17            2.3823    -9.0555     0.9608 C.3     
  18 H18           -0.5456     1.8879    -0.8727 H       
  19 H19           -0.5286     1.8784     0.9073 H       
  20 H20            0.4932    -0.3667     0.9050 H       
  21 H21           -1.0196    -0.3820    -0.0348 H       
  22 H22            0.2540    -0.1692    -2.1336 H       
  23 H23            2.7164    -0.2496    -0.3283 H       
  24 H24            2.7180    -0.1853    -2.1082 H       
  25 H25            3.0756     2.0681    -1.0920 H       
  26 H26            1.5768     1.9997    -2.0501 H       
  27 H27           -0.1636    -2.2354    -3.0646 H       
  28 H28           -0.0147    -4.6921    -3.0294 H       
  29 H29            2.0637    -4.5053     0.7003 H       
  30 H30            1.9199    -2.0485     0.6524 H       
  31 H31            2.8049    -6.3455     0.0279 H       
  32 H32            1.2535    -6.4265     0.8968 H       
  33 H33            0.9199    -8.6446    -0.7060 H       
  34 H34            1.9367   -10.0267     1.1758 H       
  35 H35            2.7916    -8.5221     1.8187 H       
@<TRIPOS>BOND
   1    1    2 1
   2    1    6 1
   3    1   18 1
   4    1   19 1
   5    2    3 1
   6    2   20 1
   7    2   21 1
   8    3    4 1
   9    3    7 1
  10    3   22 1
  11    4    5 1
  12    4   23 1
  13    4   24 1
  14    5    6 1
  15    5   25 1
  16    5   26 1
  17    7    8 ar
  18    7   12 ar
  19    8    9 ar
  20    8   27 1
  21    9   10 ar
  22    9   28 1
  23   10   11 ar
  24   10   13 1
  25   11   12 ar
  26   11   29 1
  27   12   30 1
  28   13   14 1
  29   14   16 1
  30   14   31 1
  31   14   32 1
  32   15   16 1
  33   15   17 1
  34   16   17 1
  35   16   33 1
  36   17   34 1
  37   17   35 1

#	End of record

