#	Name: ASD01916308
#	Creating user name:	WinNT
#	Creation time:	15. 06. 2019 20:07

#	Modifying user name:	WinNT
#	Modification time:	15. 06. 2019 20:07

#	Program:	/corina/corina34_cracker 3.40 0067  02.08.2006

@<TRIPOS>MOLECULE
ASD01916308
  42   43    0    0    0
SMALL
NO_CHARGES


@<TRIPOS>ATOM
   1 C1            -0.0167     1.3817     0.0096 C.ar    
   2 C2             0.0021    -0.0041     0.0020 C.ar    
   3 C3             1.2064    -0.6809    -0.0126 C.ar    
   4 C4             2.4059     0.0359    -0.0202 C.ar    
   5 C5             2.3775     1.4336    -0.0129 C.ar    
   6 C6             1.1682     2.0962     0.0022 C.ar    
   7 F7            -1.1593    -0.6943     0.0094 F       
   8 C8             3.6584    -0.6581    -0.0349 C.1     
   9 C9             4.6853    -1.2270    -0.0470 C.1     
  10 C10            5.9378    -1.9209    -0.0617 C.ar    
  11 N11            7.0820    -1.2360    -0.0689 N.ar    
  12 N12            8.2254    -1.8191    -0.0822 N.ar    
  13 C13            8.3448    -3.1427    -0.0896 C.ar    
  14 C14            7.1989    -3.9476    -0.0829 C.ar    
  15 C15            5.9652    -3.3226    -0.0628 C.ar    
  16 C16            9.6864    -3.7649    -0.1053 C.2     
  17 O17            9.7949    -4.9755    -0.1120 O.2     
  18 N18           10.7888    -2.9895    -0.1122 N.am    
  19 C19           12.1178    -3.6058    -0.1277 C.3     
  20 C20           13.1246    -2.6315    -0.7424 C.3     
  21 O21           13.2504    -1.4830     0.0985 O.3     
  22 C22           14.4851    -3.3191    -0.8733 C.3     
  23 C23           12.6363    -2.1992    -2.1265 C.3     
  24 C24           12.5412    -3.9412     1.3037 C.3     
  25 H25           -0.9607     1.9063     0.0169 H       
  26 H26            1.2208    -1.7608    -0.0179 H       
  27 H27            3.3010     1.9935    -0.0183 H       
  28 H28            1.1459     3.1759     0.0075 H       
  29 H29            7.2763    -5.0248    -0.0887 H       
  30 H30            5.0506    -3.8970    -0.0569 H       
  31 H31           10.7023    -2.0234    -0.1068 H       
  32 H32           12.0876    -4.5196    -0.7212 H       
  33 H33           13.8741    -0.8212    -0.2303 H       
  34 H34           14.3892    -4.1952    -1.5148 H       
  35 H35           15.2024    -2.6250    -1.3113 H       
  36 H36           14.8329    -3.6271     0.1127 H       
  37 H37           11.6671    -1.7093    -2.0332 H       
  38 H38           13.3536    -1.5051    -2.5644 H       
  39 H39           12.5404    -3.0753    -2.7679 H       
  40 H40           11.8239    -4.6353     1.7416 H       
  41 H41           13.5300    -4.3998     1.2921 H       
  42 H42           12.5714    -3.0274     1.8972 H       
@<TRIPOS>BOND
   1    1    2 ar
   2    1    6 ar
   3    1   25 1
   4    2    3 ar
   5    2    7 1
   6    3    4 ar
   7    3   26 1
   8    4    5 ar
   9    4    8 1
  10    5    6 ar
  11    5   27 1
  12    6   28 1
  13    8    9 3
  14    9   10 1
  15   10   11 ar
  16   10   15 ar
  17   11   12 ar
  18   12   13 ar
  19   13   14 ar
  20   13   16 1
  21   14   15 ar
  22   14   29 1
  23   15   30 1
  24   16   17 2
  25   16   18 am
  26   18   19 1
  27   18   31 1
  28   19   20 1
  29   19   24 1
  30   19   32 1
  31   20   21 1
  32   20   22 1
  33   20   23 1
  34   21   33 1
  35   22   34 1
  36   22   35 1
  37   22   36 1
  38   23   37 1
  39   23   38 1
  40   23   39 1
  41   24   40 1
  42   24   41 1
  43   24   42 1

#	End of record

