#	Name: ASD01908340
#	Creating user name:	WinNT
#	Creation time:	15. 06. 2019 19:54

#	Modifying user name:	WinNT
#	Modification time:	15. 06. 2019 19:54

#	Program:	/corina/corina34_cracker 3.40 0067  02.08.2006

@<TRIPOS>MOLECULE
ASD01908340
  42   45    0    0    0
SMALL
NO_CHARGES


@<TRIPOS>ATOM
   1 C1            -0.0170     1.3866     0.0162 C.ar    
   2 C2             1.1712     2.1103     0.0074 C.ar    
   3 C3             2.3743     1.4281     0.0105 C.ar    
   4 C4             2.3488     0.0395     0.0222 C.ar    
   5 C5             1.1331    -0.6143     0.0305 C.ar    
   6 N6             0.0004     0.0627     0.0272 N.ar    
   7 N7            -1.2344     2.0600     0.0191 N.pl3   
   8 S8            -4.0615    -0.4078    -0.3473 S.3     
   9 N9            -2.4267     0.0526    -0.2879 N.2     
  10 C10           -2.4280     1.3442    -0.0845 C.2     
  11 N11           -3.5925     1.9452     0.0194 N.2     
  12 C12           -4.6647     1.1856    -0.0916 C.2     
  13 N13           -8.2687     1.5734    -0.0013 N.pl3   
  14 N14           -7.8516     2.8941     0.2023 N.2     
  15 C15           -6.5459     2.9242     0.1966 C.2     
  16 C16           -6.0792     1.6097    -0.0131 C.2     
  17 C17           -7.1742     0.7996    -0.1313 C.2     
  18 C18           -9.6578     1.1112    -0.0570 C.3     
  19 C19          -10.3787     1.5343     1.1969 C.ar    
  20 C20          -11.0288     2.7538     1.2411 C.ar    
  21 C21          -11.6903     3.1440     2.3894 C.ar    
  22 C22          -11.7020     2.3111     3.4988 C.ar    
  23 C23          -11.0489     1.0880     3.4519 C.ar    
  24 C24          -10.3936     0.7000     2.2994 C.ar    
  25 O25          -12.3517     2.6929     4.6297 O.3     
  26 C26          -12.3220     1.7850     5.7329 C.3     
  27 H27            1.1543     3.1901    -0.0020 H       
  28 H28            3.3124     1.9631     0.0035 H       
  29 H29            3.2707    -0.5229     0.0246 H       
  30 H30            1.1087    -1.6940     0.0392 H       
  31 H31           -1.2535     3.0269     0.0931 H       
  32 H32           -5.9310     3.8022     0.3289 H       
  33 H33           -7.1634    -0.2674    -0.2979 H       
  34 H34          -10.1515     1.5482    -0.9250 H       
  35 H35           -9.6761     0.0243    -0.1374 H       
  36 H36          -11.0191     3.4020     0.3773 H       
  37 H37          -12.1977     4.0968     2.4235 H       
  38 H38          -11.0565     0.4379     4.3143 H       
  39 H39           -9.8890    -0.2542     2.2607 H       
  40 H40          -12.7780     0.8399     5.4380 H       
  41 H41          -11.2885     1.6117     6.0331 H       
  42 H42          -12.8767     2.2108     6.5689 H       
@<TRIPOS>BOND
   1    1    2 ar
   2    1    6 ar
   3    1    7 1
   4    2    3 ar
   5    2   27 1
   6    3    4 ar
   7    3   28 1
   8    4    5 ar
   9    4   29 1
  10    5    6 ar
  11    5   30 1
  12    7   10 1
  13    7   31 1
  14    8    9 1
  15    8   12 1
  16    9   10 2
  17   10   11 1
  18   11   12 2
  19   12   16 1
  20   13   14 1
  21   13   17 1
  22   13   18 1
  23   14   15 2
  24   15   16 1
  25   15   32 1
  26   16   17 2
  27   17   33 1
  28   18   19 1
  29   18   34 1
  30   18   35 1
  31   19   20 ar
  32   19   24 ar
  33   20   21 ar
  34   20   36 1
  35   21   22 ar
  36   21   37 1
  37   22   23 ar
  38   22   25 1
  39   23   24 ar
  40   23   38 1
  41   24   39 1
  42   25   26 1
  43   26   40 1
  44   26   41 1
  45   26   42 1

#	End of record

