#	Name: ASD00310265
#	Creating user name:	WinNT
#	Creation time:	15. 06. 2019 18:34

#	Modifying user name:	WinNT
#	Modification time:	15. 06. 2019 18:34

#	Program:	/corina/corina34_cracker 3.40 0067  02.08.2006

@<TRIPOS>MOLECULE
ASD00310265
  62   64    0    0    0
SMALL
NO_CHARGES


@<TRIPOS>ATOM
   1 N1            -0.0162     1.3426     0.0094 N.pl3   
   2 C2             0.0021    -0.0041     0.0020 C.2     
   3 C3             1.3064    -0.4496    -0.0128 C.2     
   4 C4             2.1540     0.7598    -0.0144 C.ar    
   5 C5             3.5274     0.9736    -0.0260 C.ar    
   6 C6             4.0195     2.2728    -0.0233 C.ar    
   7 C7             3.1343     3.3560    -0.0090 C.ar    
   8 C8             1.7742     3.1460     0.0029 C.ar    
   9 C9             1.2676     1.8488    -0.0001 C.ar    
  10 C10            1.7456    -1.7969    -0.0236 C.2     
  11 O11            0.9342    -2.6999    -0.0204 O.2     
  12 Cl12           3.7560     4.9768    -0.0058 Cl      
  13 C13            5.4838     2.5115    -0.0351 C.ar    
  14 C14            6.0412     3.3937    -0.9587 C.ar    
  15 C15            7.4039     3.6119    -0.9651 C.ar    
  16 C16            8.2162     2.9564    -0.0574 C.ar    
  17 C17            7.6684     2.0796     0.8615 C.ar    
  18 C18            6.3062     1.8586     0.8811 C.ar    
  19 C19           10.3660     2.3587     1.0243 C.3     
  20 C20            9.7037     3.1980    -0.0701 C.3     
  21 C21           10.2734     2.8002    -1.4332 C.3     
  22 C22            9.9817     4.6807     0.1858 C.3     
  23 O23           11.7765     2.5878     1.0123 O.3     
  24 Si24          12.5955     1.7427     2.1415 Si      
  25 C25           11.9772     2.2090     3.8359 C.3     
  26 C26           12.3324    -0.0808     1.8646 C.3     
  27 C27           14.4124     2.1344     2.0139 C.3     
  28 C28           14.6284     3.6319     2.2413 C.3     
  29 C29           15.1807     1.3416     3.0732 C.3     
  30 C30           14.9202     1.7514     0.6223 C.3     
  31 H31           -0.8217     1.8829     0.0163 H       
  32 H32           -0.8721    -0.6383     0.0073 H       
  33 H33            4.2077     0.1349    -0.0366 H       
  34 H34            1.0987     3.9886     0.0146 H       
  35 H35            2.8022    -2.0203    -0.0345 H       
  36 H36            5.4079     3.9054    -1.6683 H       
  37 H37            7.8370     4.2954    -1.6805 H       
  38 H38            8.3073     1.5703     1.5678 H       
  39 H39            5.8789     1.1775     1.6022 H       
  40 H40            9.9601     2.6421     1.9953 H       
  41 H41           10.1680     1.3024     0.8420 H       
  42 H42            9.8015     3.3982    -2.2128 H       
  43 H43           11.3493     2.9749    -1.4423 H       
  44 H44           10.0753     1.7439    -1.6155 H       
  45 H45            9.5758     4.9641     1.1569 H       
  46 H46           11.0576     4.8554     0.1767 H       
  47 H47            9.5098     5.2787    -0.5938 H       
  48 H48           10.9142     1.9798     3.9106 H       
  49 H49           12.5245     1.6442     4.5906 H       
  50 H50           12.1311     3.2759     3.9979 H       
  51 H51           12.6942    -0.3536     0.8732 H       
  52 H52           12.8798    -0.6456     2.6192 H       
  53 H53           11.2694    -0.3100     1.9392 H       
  54 H54           14.2667     3.9047     3.2327 H       
  55 H55           15.6914     3.8611     2.1666 H       
  56 H56           14.0811     4.1967     1.4866 H       
  57 H57           15.0267     0.2747     2.9112 H       
  58 H58           16.2437     1.5708     2.9985 H       
  59 H59           14.8189     1.6144     4.0645 H       
  60 H60           14.3728     2.3162    -0.1323 H       
  61 H61           15.9832     1.9806     0.5477 H       
  62 H62           14.7662     0.6845     0.4603 H       
@<TRIPOS>BOND
   1    1    2 1
   2    1    9 1
   3    1   31 1
   4    2    3 2
   5    2   32 1
   6    3    4 1
   7    3   10 1
   8    4    5 ar
   9    4    9 ar
  10    5    6 ar
  11    5   33 1
  12    6    7 ar
  13    6   13 1
  14    7    8 ar
  15    7   12 1
  16    8    9 ar
  17    8   34 1
  18   10   11 2
  19   10   35 1
  20   13   14 ar
  21   13   18 ar
  22   14   15 ar
  23   14   36 1
  24   15   16 ar
  25   15   37 1
  26   16   17 ar
  27   16   20 1
  28   17   18 ar
  29   17   38 1
  30   18   39 1
  31   19   20 1
  32   19   23 1
  33   19   40 1
  34   19   41 1
  35   20   21 1
  36   20   22 1
  37   21   42 1
  38   21   43 1
  39   21   44 1
  40   22   45 1
  41   22   46 1
  42   22   47 1
  43   23   24 1
  44   24   25 1
  45   24   26 1
  46   24   27 1
  47   25   48 1
  48   25   49 1
  49   25   50 1
  50   26   51 1
  51   26   52 1
  52   26   53 1
  53   27   28 1
  54   27   30 1
  55   27   29 1
  56   28   54 1
  57   28   55 1
  58   28   56 1
  59   29   57 1
  60   29   58 1
  61   29   59 1
  62   30   60 1
  63   30   61 1
  64   30   62 1

#	End of record

