#	Name: ASD04590855
#	Creating user name:	WinNT
#	Creation time:	15. 06. 2019 20:51

#	Modifying user name:	WinNT
#	Modification time:	15. 06. 2019 20:51

#	Program:	/corina/corina34_cracker 3.40 0067  02.08.2006

@<TRIPOS>MOLECULE
ASD04590855
  76   81    0    0    0
SMALL
NO_CHARGES


@<TRIPOS>ATOM
   1 N1            -3.5560    -3.7987    -1.2185 N.ar    
   2 C2            -2.3057    -3.3575    -1.2736 C.ar    
   3 N3            -1.2763    -4.1697    -1.4500 N.ar    
   4 C4            -1.4626    -5.4800    -1.5806 C.ar    
   5 C5            -2.7793    -5.9802    -1.5265 C.ar    
   6 C6            -3.8297    -5.0872    -1.3394 C.ar    
   7 N7            -0.6062    -6.5354    -1.7697 N.pl3   
   8 C8            -1.3136    -7.7242    -1.8432 C.ar    
   9 C9            -2.6791    -7.4353    -1.6971 C.ar    
  10 C10           -0.9331    -9.0547    -2.0232 C.ar    
  11 N11           -1.8445   -10.0107    -2.0538 N.ar    
  12 C12           -3.1364    -9.7615    -1.9183 C.ar    
  13 C13           -3.5970    -8.4874    -1.7371 C.ar    
  14 N14           -2.0701    -1.9988    -1.1423 N.pl3   
  15 C15           -3.1418    -1.1093    -1.0664 C.ar    
  16 N16           -4.3766    -1.5580    -1.2236 N.ar    
  17 C17           -5.4203    -0.7531    -1.1595 C.ar    
  18 C18           -5.2561     0.6033    -0.9227 C.ar    
  19 C19           -3.9696     1.1126    -0.7520 C.ar    
  20 C20           -2.9006     0.2380    -0.8206 C.ar    
  21 N21           -6.3684     1.4509    -0.8565 N.3     
  22 C22            0.8503    -6.4211    -1.8789 C.3     
  23 C23           -7.6140     0.7017    -1.0649 C.3     
  24 C24           -8.7921     1.6763    -1.1311 C.3     
  25 C25           -8.8649     2.4708     0.1759 C.3     
  26 C26           -7.5379     3.2031     0.3935 C.3     
  27 C27           -6.3962     2.1842     0.4155 C.3     
  28 N28           -9.9580     3.4489     0.0955 N.3     
  29 C29          -10.1339     4.1481     1.3754 C.3     
  30 C30           -9.7316     4.4027    -0.9986 C.3     
  31 C31            1.2204    -5.4665    -3.0329 C.3     
  32 C32            1.4282    -5.8022    -0.5941 C.3     
  33 C33            2.1294    -4.4932    -1.0121 C.3     
  34 C34            1.4361    -4.0983    -2.3397 C.3     
  35 C35          -11.0363     5.1373    -1.3129 C.3     
  36 C36          -10.7976     3.2076     2.3833 C.3     
  37 O37            0.3795    -9.3681    -2.1681 O.3     
  38 C38            0.7008   -10.7488    -2.3488 C.3     
  39 H39           -4.8496    -5.4395    -1.2939 H       
  40 H40           -3.8403   -10.5800    -1.9508 H       
  41 H41           -4.6545    -8.2969    -1.6282 H       
  42 H42           -1.1598    -1.6660    -1.1031 H       
  43 H43           -6.4137    -1.1553    -1.2932 H       
  44 H44           -3.8118     2.1648    -0.5666 H       
  45 H45           -1.8905     0.5981    -0.6926 H       
  46 H46            1.2898    -7.4036    -2.0505 H       
  47 H47           -7.5507     0.1446    -1.9996 H       
  48 H48           -7.7630     0.0075    -0.2379 H       
  49 H49           -8.6505     2.3621    -1.9664 H       
  50 H50           -9.7183     1.1188    -1.2701 H       
  51 H51           -9.0453     1.7890     1.0070 H       
  52 H52           -7.3766     3.9129    -0.4178 H       
  53 H53           -7.5681     3.7363     1.3437 H       
  54 H54           -6.5509     1.4830     1.2356 H       
  55 H55           -5.4484     2.7037     0.5560 H       
  56 H56           -9.1612     4.4602     1.7556 H       
  57 H57          -10.7643     5.0248     1.2269 H       
  58 H58           -8.9711     5.1243    -0.7000 H       
  59 H59           -9.3945     3.8654    -1.8850 H       
  60 H60            2.1377    -5.7958    -3.5210 H       
  61 H61            0.4048    -5.4048    -3.7533 H       
  62 H62            0.6251    -5.5870     0.1107 H       
  63 H63            2.1489    -6.4841    -0.1426 H       
  64 H64            1.9771    -3.7212    -0.2579 H       
  65 H65            3.1935    -4.6653    -1.1739 H       
  66 H66            2.0849    -3.4596    -2.9392 H       
  67 H67            0.4818    -3.6085    -2.1464 H       
  68 H68          -11.7901     4.4181    -1.6334 H       
  69 H69          -11.3854     5.6560    -0.4201 H       
  70 H70          -10.8630     5.8611    -2.1093 H       
  71 H71          -11.7255     2.8204     1.9625 H       
  72 H72          -10.1250     2.3788     2.6043 H       
  73 H73          -11.0150     3.7537     3.3013 H       
  74 H74            0.3574   -11.3178    -1.4848 H       
  75 H75            0.2097   -11.1215    -3.2477 H       
  76 H76            1.7802   -10.8603    -2.4517 H       
@<TRIPOS>BOND
   1    1    2 ar
   2    1    6 ar
   3    2    3 ar
   4    2   14 1
   5    3    4 ar
   6    4    5 ar
   7    4    7 1
   8    5    6 ar
   9    5    9 1
  10    6   39 1
  11    7    8 1
  12    7   22 1
  13    8    9 ar
  14    8   10 ar
  15    9   13 ar
  16   10   11 ar
  17   10   37 1
  18   11   12 ar
  19   12   13 ar
  20   12   40 1
  21   13   41 1
  22   14   15 1
  23   14   42 1
  24   15   16 ar
  25   15   20 ar
  26   16   17 ar
  27   17   18 ar
  28   17   43 1
  29   18   19 ar
  30   18   21 1
  31   19   20 ar
  32   19   44 1
  33   20   45 1
  34   21   23 1
  35   21   27 1
  36   22   32 1
  37   22   31 1
  38   22   46 1
  39   23   24 1
  40   23   47 1
  41   23   48 1
  42   24   25 1
  43   24   49 1
  44   24   50 1
  45   25   26 1
  46   25   28 1
  47   25   51 1
  48   26   27 1
  49   26   52 1
  50   26   53 1
  51   27   54 1
  52   27   55 1
  53   28   29 1
  54   28   30 1
  55   29   36 1
  56   29   56 1
  57   29   57 1
  58   30   35 1
  59   30   58 1
  60   30   59 1
  61   31   34 1
  62   31   60 1
  63   31   61 1
  64   32   33 1
  65   32   62 1
  66   32   63 1
  67   33   34 1
  68   33   64 1
  69   33   65 1
  70   34   66 1
  71   34   67 1
  72   35   68 1
  73   35   69 1
  74   35   70 1
  75   36   71 1
  76   36   72 1
  77   36   73 1
  78   37   38 1
  79   38   74 1
  80   38   75 1
  81   38   76 1

#	End of record

