#	Name: ASD01915340
#	Creating user name:	WinNT
#	Creation time:	15. 06. 2019 20:05

#	Modifying user name:	WinNT
#	Modification time:	15. 06. 2019 20:05

#	Program:	/corina/corina34_cracker 3.40 0067  02.08.2006

@<TRIPOS>MOLECULE
ASD01915340
  36   38    0    0    0
SMALL
NO_CHARGES


@<TRIPOS>ATOM
   1 C1             0.0011     1.3378    -0.0226 C.2     
   2 N2             0.0152    -0.0230    -0.0298 N.pl3   
   3 C3            -1.2205    -0.6286    -0.0145 C.2     
   4 C4            -2.3004     0.1326     0.0057 C.2     
   5 S5            -1.7064     1.8027     0.0110 S.3     
   6 N6             1.2328     1.7903    -0.0383 N.2     
   7 C7             2.0791     0.7509    -0.0561 C.2     
   8 C8             1.3586    -0.3829    -0.0518 C.2     
   9 C9            -3.7366    -0.3237     0.0248 C.3     
  10 C10           -1.3398    -2.1308    -0.0210 C.3     
  11 C11           -4.3875     0.0961     1.3443 C.3     
  12 O12           -4.4523     0.2838    -1.0828 O.3     
  13 C13           -5.4792    -0.4143    -1.6035 C.2     
  14 N14           -6.1853     0.0927    -2.6335 N.am    
  15 O15           -5.7692    -1.5015    -1.1449 O.2     
  16 C16           -7.1782    -0.6785    -3.2481 C.ar    
  17 C17           -8.3284    -0.0719    -3.7355 C.ar    
  18 C18           -9.3063    -0.8357    -4.3420 C.ar    
  19 C19           -9.1410    -2.2032    -4.4641 C.ar    
  20 C20           -7.9968    -2.8102    -3.9799 C.ar    
  21 C21           -7.0129    -2.0512    -3.3771 C.ar    
  22 H22            3.1572     0.8142    -0.0714 H       
  23 H23            1.7505    -1.3892    -0.0630 H       
  24 H24           -3.7743    -1.4090    -0.0698 H       
  25 H25           -0.3442    -2.5742    -0.0380 H       
  26 H26           -1.8676    -2.4573     0.8751 H       
  27 H27           -1.8938    -2.4475    -0.9046 H       
  28 H28           -3.8502    -0.3600     2.1758 H       
  29 H29           -4.3498     1.1813     1.4389 H       
  30 H30           -5.4262    -0.2339     1.3582 H       
  31 H31           -6.0052     0.9922    -2.9487 H       
  32 H32           -8.4582     0.9960    -3.6400 H       
  33 H33          -10.2012    -0.3646    -4.7209 H       
  34 H34           -9.9073    -2.7983    -4.9385 H       
  35 H35           -7.8706    -3.8784    -4.0768 H       
  36 H36           -6.1193    -2.5259    -2.9993 H       
@<TRIPOS>BOND
   1    1    2 1
   2    1    6 2
   3    1    5 1
   4    2    3 1
   5    2    8 1
   6    3    4 2
   7    3   10 1
   8    4    5 1
   9    4    9 1
  10    6    7 1
  11    7    8 2
  12    7   22 1
  13    8   23 1
  14    9   11 1
  15    9   12 1
  16    9   24 1
  17   10   25 1
  18   10   26 1
  19   10   27 1
  20   11   28 1
  21   11   29 1
  22   11   30 1
  23   12   13 1
  24   13   14 am
  25   13   15 2
  26   14   16 1
  27   14   31 1
  28   16   17 ar
  29   16   21 ar
  30   17   18 ar
  31   17   32 1
  32   18   19 ar
  33   18   33 1
  34   19   20 ar
  35   19   34 1
  36   20   21 ar
  37   20   35 1
  38   21   36 1

#	End of record

