#	Name: ASD03092390
#	Creating user name:	WinNT
#	Creation time:	15. 06. 2019 20:32

#	Modifying user name:	WinNT
#	Modification time:	15. 06. 2019 20:32

#	Program:	/corina/corina34_cracker 3.40 0067  02.08.2006

@<TRIPOS>MOLECULE
ASD03092390
  62   65    0    0    0
SMALL
NO_CHARGES


@<TRIPOS>ATOM
   1 C1             0.0154     1.6246     0.1065 C.3     
   2 C2             0.0578     0.0866     0.1274 C.3     
   3 C3             1.5478    -0.3131     0.1313 C.3     
   4 C4             2.2718     0.9254     0.7153 C.3     
   5 C5             1.4810     2.1059     0.0985 C.3     
   6 C6            -0.6924     2.1047    -1.1343 C.2     
   7 O7            -1.1262     1.3025    -1.9338 O.2     
   8 N8            -0.8432     3.4256    -1.3556 N.am    
   9 C9            -1.5312     3.8923    -2.5619 C.3     
  10 S10           -2.2399     7.8200    -2.2986 S.3     
  11 C11           -0.7255     7.4225    -2.9848 C.2     
  12 N12           -0.5771     6.1327    -3.0327 N.2     
  13 C13           -1.5656     5.3989    -2.5695 C.2     
  14 C14           -2.6130     6.1095    -2.1015 C.2     
  15 C15           -5.7390     4.0813    -1.6337 C.ar    
  16 C16           -4.5877     4.5743    -2.2089 C.ar    
  17 C17           -3.8524     5.5521    -1.5258 C.ar    
  18 C18           -4.3267     5.9855    -0.2802 C.ar    
  19 C19           -5.4879     5.4376     0.2196 C.ar    
  20 N20           -6.1502     4.5178    -0.4577 N.ar    
  21 C21           -3.5778     7.0345     0.5007 C.3     
  22 C22           -6.5430     3.0339    -2.3601 C.3     
  23 N23            0.2080     8.3424    -3.4263 N.3     
  24 C24            1.4001     7.6682    -3.9608 C.3     
  25 C25            2.4293     8.7206    -4.3817 C.3     
  26 O26            1.8354     9.6065    -5.3346 O.3     
  27 C27            0.6721    10.2805    -4.8469 C.3     
  28 C28           -0.3749     9.2439    -4.4307 C.3     
  29 C29            0.0981    11.1719    -5.9501 C.3     
  30 C30            3.6391     8.0283    -5.0126 C.3     
  31 H31           -0.4948     1.9962     0.9952 H       
  32 H32           -0.4317    -0.2882     1.0262 H       
  33 H33           -0.4335    -0.3125    -0.7600 H       
  34 H34            1.7075    -1.1836     0.7677 H       
  35 H35            1.8919    -0.5129    -0.8834 H       
  36 H36            2.1993     0.9382     1.8028 H       
  37 H37            3.3137     0.9498     0.3962 H       
  38 H38            1.8143     2.2967    -0.9216 H       
  39 H39            1.5921     3.0007     0.7109 H       
  40 H40           -0.4963     4.0673    -0.7162 H       
  41 H41           -0.9992     3.5366    -3.4442 H       
  42 H42           -2.5503     3.5056    -2.5716 H       
  43 H43           -4.2571     4.2123    -3.1712 H       
  44 H44           -5.8613     5.7647     1.1787 H       
  45 H45           -3.8751     8.0250     0.1565 H       
  46 H46           -3.8104     6.9333     1.5608 H       
  47 H47           -2.5062     6.9038     0.3498 H       
  48 H48           -6.1905     2.0427    -2.0749 H       
  49 H49           -7.5955     3.1354    -2.0954 H       
  50 H50           -6.4245     3.1661    -3.4356 H       
  51 H51            1.8300     7.0256    -3.1924 H       
  52 H52            1.1208     7.0660    -4.8253 H       
  53 H53            2.7486     9.2876    -3.5073 H       
  54 H54            0.9403    10.8929    -3.9860 H       
  55 H55           -0.6826     8.6670    -5.3028 H       
  56 H56           -1.2406     9.7516    -4.0054 H       
  57 H57           -0.1715    10.5582    -6.8096 H       
  58 H58           -0.7884    11.6853    -5.5778 H       
  59 H59            0.8453    11.9071    -6.2487 H       
  60 H60            3.3188     7.4633    -5.8880 H       
  61 H61            4.3714     8.7781    -5.3121 H       
  62 H62            4.0890     7.3504    -4.2872 H       
@<TRIPOS>BOND
   1    1    2 1
   2    1    5 1
   3    1    6 1
   4    1   31 1
   5    2    3 1
   6    2   32 1
   7    2   33 1
   8    3    4 1
   9    3   34 1
  10    3   35 1
  11    4    5 1
  12    4   36 1
  13    4   37 1
  14    5   38 1
  15    5   39 1
  16    6    7 2
  17    6    8 am
  18    8    9 1
  19    8   40 1
  20    9   13 1
  21    9   41 1
  22    9   42 1
  23   10   11 1
  24   10   14 1
  25   11   12 2
  26   11   23 1
  27   12   13 1
  28   13   14 2
  29   14   17 1
  30   15   16 ar
  31   15   20 ar
  32   15   22 1
  33   16   17 ar
  34   16   43 1
  35   17   18 ar
  36   18   19 ar
  37   18   21 1
  38   19   20 ar
  39   19   44 1
  40   21   45 1
  41   21   46 1
  42   21   47 1
  43   22   48 1
  44   22   49 1
  45   22   50 1
  46   23   24 1
  47   23   28 1
  48   24   25 1
  49   24   51 1
  50   24   52 1
  51   25   26 1
  52   25   30 1
  53   25   53 1
  54   26   27 1
  55   27   28 1
  56   27   29 1
  57   27   54 1
  58   28   55 1
  59   28   56 1
  60   29   57 1
  61   29   58 1
  62   29   59 1
  63   30   60 1
  64   30   61 1
  65   30   62 1

#	End of record

