#	Name: ASD04880042
#	Creating user name:	WinNT
#	Creation time:	15. 06. 2019 20:52

#	Modifying user name:	WinNT
#	Modification time:	15. 06. 2019 20:52

#	Program:	/corina/corina34_cracker 3.40 0067  02.08.2006

@<TRIPOS>MOLECULE
ASD04880042
  41   43    0    0    0
SMALL
NO_CHARGES


@<TRIPOS>ATOM
   1 C1            -0.0144     1.2121     0.0087 C.2     
   2 O2            -0.1310     0.0018    -0.0227 O.2     
   3 C3             1.3307     1.8249     0.0260 C.ar    
   4 C4             2.4664     1.0195     0.1256 C.ar    
   5 C5             3.7206     1.5989     0.1407 C.ar    
   6 C6             3.8508     2.9763     0.0576 C.ar    
   7 C7             2.7282     3.7780    -0.0407 C.ar    
   8 C8             1.4706     3.2107    -0.0630 C.ar    
   9 F9             4.8215     0.8219     0.2370 F       
  10 N10           -1.1116     1.9947     0.0222 N.am    
  11 N11           -1.1162     3.3825     0.1465 N.2     
  12 C12           -2.2883     3.9083     0.1331 C.2     
  13 C13           -3.3289     2.8219    -0.0182 C.3     
  14 C14           -2.5008     1.5240    -0.0983 C.3     
  15 N15           -2.5569     5.2599     0.2409 N.pl3   
  16 C16           -3.9421     5.7360     0.2125 C.3     
  17 C17           -1.4564     6.2163     0.3836 C.3     
  18 C18           -1.0063     6.6715    -0.9807 C.ar    
  19 C19           -1.5879     7.7806    -1.5656 C.ar    
  20 C20           -1.1739     8.1987    -2.8188 C.ar    
  21 C21           -0.1775     7.5050    -3.4848 C.ar    
  22 C22            0.4024     6.3965    -2.8981 C.ar    
  23 C23           -0.0082     5.9830    -1.6442 C.ar    
  24 F24           -1.7419     9.2824    -3.3916 F       
  25 H25            2.3650    -0.0537     0.1910 H       
  26 H26            4.8330     3.4253     0.0701 H       
  27 H27            2.8364     4.8507    -0.1048 H       
  28 H28            0.5955     3.8384    -0.1445 H       
  29 H29           -3.9919     2.8042     0.8468 H       
  30 H30           -3.8997     2.9642    -0.9359 H       
  31 H31           -2.6556     1.0261    -1.0555 H       
  32 H32           -2.7534     0.8583     0.7270 H       
  33 H33           -4.3382     5.7621     1.2277 H       
  34 H34           -3.9732     6.7380    -0.2155 H       
  35 H35           -4.5455     5.0622    -0.3957 H       
  36 H36           -1.7954     7.0770     0.9602 H       
  37 H37           -0.6240     5.7381     0.8999 H       
  38 H38           -2.3651     8.3206    -1.0454 H       
  39 H39            0.1460     7.8301    -4.4626 H       
  40 H40            1.1795     5.8554    -3.4174 H       
  41 H41            0.4487     5.1191    -1.1845 H       
@<TRIPOS>BOND
   1    1    2 2
   2    1    3 1
   3    1   10 am
   4    3    4 ar
   5    3    8 ar
   6    4    5 ar
   7    4   25 1
   8    5    6 ar
   9    5    9 1
  10    6    7 ar
  11    6   26 1
  12    7    8 ar
  13    7   27 1
  14    8   28 1
  15   10   11 1
  16   10   14 1
  17   11   12 2
  18   12   13 1
  19   12   15 1
  20   13   14 1
  21   13   29 1
  22   13   30 1
  23   14   31 1
  24   14   32 1
  25   15   16 1
  26   15   17 1
  27   16   33 1
  28   16   34 1
  29   16   35 1
  30   17   18 1
  31   17   36 1
  32   17   37 1
  33   18   19 ar
  34   18   23 ar
  35   19   20 ar
  36   19   38 1
  37   20   21 ar
  38   20   24 1
  39   21   22 ar
  40   21   39 1
  41   22   23 ar
  42   22   40 1
  43   23   41 1

#	End of record

