#	Name: ASD01148412
#	Creating user name:	WinNT
#	Creation time:	15. 06. 2019 19:02

#	Modifying user name:	WinNT
#	Modification time:	15. 06. 2019 19:02

#	Program:	/corina/corina34_cracker 3.40 0067  02.08.2006

@<TRIPOS>MOLECULE
ASD01148412
  49   52    0    0    0
SMALL
NO_CHARGES


@<TRIPOS>ATOM
   1 C1             0.3639     1.8424     0.0684 C.ar    
   2 C2             0.4625     0.4636    -0.0068 C.ar    
   3 C3            -0.6839    -0.3075    -0.0943 C.ar    
   4 C4            -1.9265     0.3004    -0.1066 C.ar    
   5 C5            -2.0237     1.6772    -0.0319 C.ar    
   6 C6            -0.8799     2.4478     0.0617 C.ar    
   7 C7            -3.3779     2.3383    -0.0464 C.3     
   8 O8            -4.3707     1.4946     0.5717 O.3     
   9 C9            -3.3986     3.5787     0.8785 C.3     
  10 C10           -3.9261     3.0093     2.1818 C.2     
  11 N11           -4.4465     1.8536     1.9372 N.2     
  12 C12           -3.8559     3.6642     3.5028 C.ar    
  13 C13           -4.3836     3.0255     4.6282 C.ar    
  14 C14           -3.2569     4.9199     3.6291 C.ar    
  15 C15           -3.1916     5.5305     4.8614 C.ar    
  16 C16           -3.7238     4.8944     5.9851 C.ar    
  17 C17           -4.3182     3.6363     5.8599 C.ar    
  18 C18           -3.6528     5.5497     7.3080 C.2     
  19 O19           -4.2121     5.0500     8.2646 O.2     
  20 N20           -2.9678     6.7012     7.4537 N.am    
  21 C21           -4.8928     2.9503     7.0725 C.3     
  22 C22           -3.7871     2.7109    -1.4728 C.3     
  23 F23           -3.8264     1.5571    -2.2630 F       
  24 F24           -5.0527     3.3068    -1.4542 F       
  25 F25           -2.8563     3.6094    -2.0053 F       
  26 Cl26          -0.5621    -2.0366    -0.1892 Cl      
  27 Cl27           2.0225    -0.2978     0.0081 Cl      
  28 Cl28           1.8004     2.8110     0.1781 Cl      
  29 C29           -2.8974     7.3507     8.7650 C.3     
  30 C30           -2.0789     8.6115     8.6578 C.2     
  31 C31           -2.6269     9.8149     8.4636 C.2     
  32 S32           -1.3245    10.9999     8.3996 S.3     
  33 C33           -0.1727     9.7595     8.6403 C.2     
  34 N34           -0.7646     8.6186     8.7533 N.2     
  35 H35           -2.8210    -0.3010    -0.1748 H       
  36 H36           -0.9571     3.5234     0.1204 H       
  37 H37           -2.3937     3.9799     1.0102 H       
  38 H38           -4.0728     4.3411     0.4883 H       
  39 H39           -4.8431     2.0530     4.5314 H       
  40 H40           -2.8448     5.4115     2.7603 H       
  41 H41           -2.7286     6.5013     4.9591 H       
  42 H42           -2.5215     7.1000     6.6904 H       
  43 H43           -5.9000     3.3235     7.2579 H       
  44 H44           -4.9301     1.8750     6.8980 H       
  45 H45           -4.2638     3.1563     7.9386 H       
  46 H46           -3.9039     7.5985     9.1023 H       
  47 H47           -2.4306     6.6743     9.4809 H       
  48 H48           -3.6817    10.0240     8.3636 H       
  49 H49            0.8954     9.9098     8.6946 H       
@<TRIPOS>BOND
   1    1    2 ar
   2    1   28 1
   3    1    6 ar
   4    2    3 ar
   5    2   27 1
   6    3    4 ar
   7    3   26 1
   8    4    5 ar
   9    4   35 1
  10    5    6 ar
  11    5    7 1
  12    6   36 1
  13    7    8 1
  14    7    9 1
  15    7   22 1
  16    8   11 1
  17    9   10 1
  18    9   37 1
  19    9   38 1
  20   10   11 2
  21   10   12 1
  22   12   13 ar
  23   12   14 ar
  24   13   17 ar
  25   13   39 1
  26   14   15 ar
  27   14   40 1
  28   15   16 ar
  29   15   41 1
  30   16   17 ar
  31   16   18 1
  32   17   21 1
  33   18   19 2
  34   18   20 am
  35   20   29 1
  36   20   42 1
  37   21   43 1
  38   21   44 1
  39   21   45 1
  40   22   23 1
  41   22   24 1
  42   22   25 1
  43   29   30 1
  44   29   46 1
  45   29   47 1
  46   30   31 2
  47   30   34 1
  48   31   32 1
  49   31   48 1
  50   32   33 1
  51   33   34 2
  52   33   49 1

#	End of record

