#	Name: ASD02030536
#	Creating user name:	WinNT
#	Creation time:	15. 06. 2019 20:15

#	Modifying user name:	WinNT
#	Modification time:	15. 06. 2019 20:15

#	Program:	/corina/corina34_cracker 3.40 0067  02.08.2006

@<TRIPOS>MOLECULE
ASD02030536
  61   65    0    0    0
SMALL
NO_CHARGES


@<TRIPOS>ATOM
   1 N1            -0.2103     1.4205    -0.1435 N.am    
   2 C2            -0.0214    -0.0130     0.1195 C.3     
   3 C3            -0.9179    -0.4177     1.2962 C.3     
   4 N4            -2.2766     0.0834     1.0455 N.am    
   5 C5            -2.4654     1.5170     0.7825 C.3     
   6 C6            -1.5696     1.9225    -0.3887 C.3     
   7 C7             0.8436     2.2606    -0.1541 C.2     
   8 C8             2.1857     1.7676     0.2214 C.2     
   9 N9             3.2653     2.5036     0.3752 N.2     
  10 N10            2.5172     0.4876     0.4719 N.2     
  11 C11            3.7917     0.4667     0.7681 C.2     
  12 N12            4.2461     1.7351     0.7035 N.pl3   
  13 O13            0.6904     3.4237    -0.4725 O.2     
  14 C14           -3.3304    -0.7567     1.0561 C.2     
  15 C15           -4.6998    -0.2247     0.9127 C.ar    
  16 O16           -3.1531    -1.9527     1.1839 O.2     
  17 C17           -1.5413     3.4475    -0.5095 C.3     
  18 C18           -2.1089     1.3113    -1.6835 C.3     
  19 C19            5.5624     2.1474     0.9512 C.ar    
  20 C20            5.9015     3.4898     0.8503 C.ar    
  21 C21            7.1998     3.8931     1.0950 C.ar    
  22 C22            8.1613     2.9612     1.4397 C.ar    
  23 C23            7.8266     1.6231     1.5411 C.ar    
  24 C24            6.5290     1.2146     1.3037 C.ar    
  25 C25            7.5688     5.3501     0.9857 C.3     
  26 C26           -5.6720    -0.9663     0.2378 C.ar    
  27 C27           -6.9544    -0.4653     0.1045 C.ar    
  28 C28           -7.2757     0.7763     0.6459 C.ar    
  29 C29           -6.3069     1.5153     1.3170 C.ar    
  30 C30           -5.0286     1.0194     1.4566 C.ar    
  31 O31           -7.8888    -1.1967    -0.5629 O.3     
  32 C32           -9.2582    -0.8343    -0.3556 C.3     
  33 C33           -9.3737     0.6918    -0.4681 C.3     
  34 O34           -8.5336     1.2799     0.5308 O.3     
  35 Cl35          -6.7113     3.0649     1.9870 Cl      
  36 H36           -0.2977    -0.5868    -0.7651 H       
  37 H37            1.0216    -0.2044     0.3716 H       
  38 H38           -0.9390    -1.5040     1.3834 H       
  39 H39           -0.5314     0.0183     2.2174 H       
  40 H40           -3.5085     1.7083     0.5304 H       
  41 H41           -2.1891     2.0907     1.6671 H       
  42 H42            4.3735    -0.4072     1.0214 H       
  43 H43           -1.0443     3.8719     0.3628 H       
  44 H44           -0.9978     3.7305    -1.4110 H       
  45 H45           -2.5617     3.8264    -0.5665 H       
  46 H46           -3.1222     1.6717    -1.8609 H       
  47 H47           -1.4689     1.6017    -2.5166 H       
  48 H48           -2.1200     0.2249    -1.5953 H       
  49 H49            5.1511     4.2181     0.5804 H       
  50 H50            9.1759     3.2788     1.6299 H       
  51 H51            8.5798     0.8976     1.8105 H       
  52 H52            6.2681     0.1696     1.3833 H       
  53 H53            7.4294     5.8337     1.9526 H       
  54 H54            8.6118     5.4390     0.6820 H       
  55 H55            6.9319     5.8315     0.2435 H       
  56 H56           -5.4225    -1.9303    -0.1801 H       
  57 H57           -4.2792     1.5961     1.9785 H       
  58 H58           -9.8824    -1.3070    -1.1139 H       
  59 H59           -9.5773    -1.1550     0.6361 H       
  60 H60           -9.0484     1.0131    -1.4576 H       
  61 H61          -10.4077     0.9953    -0.3040 H       
@<TRIPOS>BOND
   1    1    2 1
   2    1    7 am
   3    1    6 1
   4    2    3 1
   5    2   36 1
   6    2   37 1
   7    3    4 1
   8    3   38 1
   9    3   39 1
  10    4    5 1
  11    4   14 am
  12    5    6 1
  13    5   40 1
  14    5   41 1
  15    6   17 1
  16    6   18 1
  17    7    8 1
  18    7   13 2
  19    8    9 2
  20    8   10 1
  21    9   12 1
  22   10   11 2
  23   11   12 1
  24   11   42 1
  25   12   19 1
  26   14   15 1
  27   14   16 2
  28   15   26 ar
  29   15   30 ar
  30   17   43 1
  31   17   44 1
  32   17   45 1
  33   18   46 1
  34   18   47 1
  35   18   48 1
  36   19   20 ar
  37   19   24 ar
  38   20   21 ar
  39   20   49 1
  40   21   22 ar
  41   21   25 1
  42   22   23 ar
  43   22   50 1
  44   23   24 ar
  45   23   51 1
  46   24   52 1
  47   25   53 1
  48   25   54 1
  49   25   55 1
  50   26   27 ar
  51   26   56 1
  52   27   28 ar
  53   27   31 1
  54   28   29 ar
  55   28   34 1
  56   29   30 ar
  57   29   35 1
  58   30   57 1
  59   31   32 1
  60   32   33 1
  61   32   58 1
  62   32   59 1
  63   33   34 1
  64   33   60 1
  65   33   61 1

#	End of record

