#	Name: ASD02500094
#	Creating user name:	WinNT
#	Creation time:	15. 06. 2019 20:22

#	Modifying user name:	WinNT
#	Modification time:	15. 06. 2019 20:22

#	Program:	/corina/corina34_cracker 3.40 0067  02.08.2006

@<TRIPOS>MOLECULE
ASD02500094
  62   66    0    0    0
SMALL
NO_CHARGES


@<TRIPOS>ATOM
   1 N1             1.6633     4.2764    -0.7130 N.ar    
   2 C2             2.5881     4.0668     0.1921 C.ar    
   3 C3             3.7903     3.4356    -0.1205 C.ar    
   4 C4             4.0283     3.0170    -1.3985 C.ar    
   5 C5             3.0327     3.2433    -2.3678 C.ar    
   6 C6             3.2062     2.8417    -3.7017 C.ar    
   7 C7             2.2195     3.0791    -4.6097 C.ar    
   8 C8             1.0393     3.7161    -4.2328 C.ar    
   9 C9             0.8379     4.1188    -2.9483 C.ar    
  10 C10            1.8330     3.8916    -1.9820 C.ar    
  11 S11           -0.6641     4.9230    -2.4988 S.o2    
  12 O12           -0.2937     6.0993    -1.7928 O.2     
  13 O13           -1.4750     4.9397    -3.6656 O.2     
  14 N14           -1.4356     3.9457    -1.4071 N.am    
  15 C15           -1.9400     2.7138    -1.8112 C.ar    
  16 C16           -3.1021     2.2131    -1.2278 C.ar    
  17 C17           -3.6037     0.9945    -1.6263 C.ar    
  18 C18           -2.9454     0.2597    -2.6173 C.ar    
  19 C19           -1.7800     0.7652    -3.2001 C.ar    
  20 C20           -1.2862     1.9868    -2.8012 C.ar    
  21 Cl21          -3.9179     3.1264     0.0027 Cl      
  22 C22           -3.4796    -1.0467    -3.0464 C.2     
  23 O23           -3.4677    -1.3514    -4.2235 O.2     
  24 N24           -3.9809    -1.9024    -2.1338 N.am    
  25 C25           -4.4343    -3.2452    -2.5271 C.3     
  26 C26           -3.7718    -4.2727    -1.6032 C.3     
  27 N27           -4.0380    -3.9121    -0.2043 N.3     
  28 C28           -3.4401    -2.6138     0.1344 C.3     
  29 C29           -4.0834    -1.5205    -0.7171 C.3     
  30 C30           -3.5901    -4.9129     0.6656 C.ar    
  31 C31           -4.1932    -6.1691     0.6551 C.ar    
  32 C32           -3.7456    -7.1556     1.5175 C.ar    
  33 C33           -2.7025    -6.8932     2.3873 C.ar    
  34 C34           -2.1040    -5.6474     2.3987 C.ar    
  35 C35           -2.5409    -4.6589     1.5363 C.ar    
  36 O36           -5.2194    -6.4255    -0.2000 O.3     
  37 C37           -5.7893    -7.7352    -0.1553 C.3     
  38 H38            2.4137     4.3925     1.2069 H       
  39 H39            4.5334     3.2777     0.6472 H       
  40 H40            4.9546     2.5264    -1.6585 H       
  41 H41            4.1170     2.3476    -4.0061 H       
  42 H42            2.3539     2.7697    -5.6357 H       
  43 H43            0.2720     3.8936    -4.9717 H       
  44 H44           -1.5358     4.2322    -0.4858 H       
  45 H45           -4.5042     0.6063    -1.1739 H       
  46 H46           -1.2695     0.1998    -3.9657 H       
  47 H47           -0.3882     2.3796    -3.2547 H       
  48 H48           -5.5180    -3.3092    -2.4284 H       
  49 H49           -4.1456    -3.4413    -3.5597 H       
  50 H50           -4.1802    -5.2624    -1.8078 H       
  51 H51           -2.6960    -4.2793    -1.7787 H       
  52 H52           -3.6079    -2.4004     1.1901 H       
  53 H53           -2.3690    -2.6435    -0.0653 H       
  54 H54           -3.5627    -0.5770    -0.5537 H       
  55 H55           -5.1326    -1.4155    -0.4412 H       
  56 H56           -4.2113    -8.1300     1.5115 H       
  57 H57           -2.3550    -7.6637     3.0595 H       
  58 H58           -1.2903    -5.4469     3.0799 H       
  59 H59           -2.0686    -3.6877     1.5441 H       
  60 H60           -6.5956    -7.8057    -0.8854 H       
  61 H61           -5.0222    -8.4734    -0.3888 H       
  62 H62           -6.1849    -7.9254     0.8424 H       
@<TRIPOS>BOND
   1    1    2 ar
   2    1   10 ar
   3    2    3 ar
   4    2   38 1
   5    3    4 ar
   6    3   39 1
   7    4    5 ar
   8    4   40 1
   9    5    6 ar
  10    5   10 ar
  11    6    7 ar
  12    6   41 1
  13    7    8 ar
  14    7   42 1
  15    8    9 ar
  16    8   43 1
  17    9   10 ar
  18    9   11 1
  19   11   12 2
  20   11   13 2
  21   11   14 am
  22   14   15 1
  23   14   44 1
  24   15   16 ar
  25   15   20 ar
  26   16   17 ar
  27   16   21 1
  28   17   18 ar
  29   17   45 1
  30   18   19 ar
  31   18   22 1
  32   19   20 ar
  33   19   46 1
  34   20   47 1
  35   22   23 2
  36   22   24 am
  37   24   25 1
  38   24   29 1
  39   25   26 1
  40   25   48 1
  41   25   49 1
  42   26   27 1
  43   26   50 1
  44   26   51 1
  45   27   28 1
  46   27   30 1
  47   28   29 1
  48   28   52 1
  49   28   53 1
  50   29   54 1
  51   29   55 1
  52   30   31 ar
  53   30   35 ar
  54   31   32 ar
  55   31   36 1
  56   32   33 ar
  57   32   56 1
  58   33   34 ar
  59   33   57 1
  60   34   35 ar
  61   34   58 1
  62   35   59 1
  63   36   37 1
  64   37   60 1
  65   37   61 1
  66   37   62 1

#	End of record

