#	Name: ASD08150350
#	Creating user name:	WinNT
#	Creation time:	15. 06. 2019 21:15

#	Modifying user name:	WinNT
#	Modification time:	15. 06. 2019 21:15

#	Program:	/corina/corina34_cracker 3.40 0067  02.08.2006

@<TRIPOS>MOLECULE
ASD08150350
  46   50    0    0    0
SMALL
NO_CHARGES


@<TRIPOS>ATOM
   1 C1             1.2468    -0.4190     1.1642 C.3     
   2 N2             1.7511    -4.5447    -1.4631 N.am    
   3 C3             2.8561    -4.5859    -2.2326 C.2     
   4 C4             2.8447    -5.2409    -3.4808 C.2     
   5 C5             1.7125    -5.8428    -3.9260 C.2     
   6 C6             0.5481    -5.8018    -3.1189 C.ar    
   7 C7            -0.6521    -6.4104    -3.5334 C.ar    
   8 N8            -1.7246    -6.3710    -2.7869 N.ar    
   9 C9            -1.7467    -5.7561    -1.5945 C.ar    
  10 C10           -0.5841    -5.1173    -1.0976 C.ar    
  11 C11            0.5931    -5.1410    -1.8817 C.ar    
  12 C12           -0.6180    -4.4784     0.1459 C.ar    
  13 C13           -1.7921    -4.4773     0.8803 C.ar    
  14 C14           -2.9384    -5.1113     0.3824 C.ar    
  15 C15           -2.9214    -5.7375    -0.8250 C.ar    
  16 O16            3.8797    -4.0492    -1.8443 O.2     
  17 C17           -1.8364    -3.8018     2.2014 C.2     
  18 C18            1.7895    -3.8922    -0.2245 C.ar    
  19 C19            2.1063    -4.6026     0.9262 C.ar    
  20 C20            2.1436    -3.9575     2.1464 C.ar    
  21 C21            1.8655    -2.6028     2.2234 C.ar    
  22 C22            1.5494    -1.8927     1.0774 C.ar    
  23 C23            1.5166    -2.5330    -0.1459 C.ar    
  24 F24            1.9021    -1.9735     3.4183 F       
  25 C25           -2.5264    -4.2241     3.3002 C.2     
  26 N26           -2.3042    -3.3339     4.2884 N.pl3   
  27 N27           -1.4568    -2.3346     3.7947 N.2     
  28 C28           -1.1689    -2.6115     2.5505 C.2     
  29 C29           -2.8543    -3.4008     5.6445 C.3     
  30 H30            2.1690     0.1492     1.0426 H       
  31 H31            0.5448    -0.1452     0.3766 H       
  32 H32            0.8075    -0.1949     2.1364 H       
  33 H33            3.7396    -5.2636    -4.0849 H       
  34 H34            1.6989    -6.3455    -4.8818 H       
  35 H35           -0.6874    -6.9188    -4.4857 H       
  36 H36            0.2649    -3.9897     0.5308 H       
  37 H37           -3.8475    -5.1029     0.9654 H       
  38 H38           -3.8141    -6.2207    -1.1935 H       
  39 H39            2.3229    -5.6590     0.8666 H       
  40 H40            2.3895    -4.5096     3.0414 H       
  41 H41            1.2745    -1.9779    -1.0401 H       
  42 H42           -3.1398    -5.1105     3.3664 H       
  43 H43           -0.5353    -2.0259     1.9009 H       
  44 H44           -2.1731    -3.9601     6.2857 H       
  45 H45           -2.9766    -2.3914     6.0372 H       
  46 H46           -3.8226    -3.9008     5.6195 H       
@<TRIPOS>BOND
   1    1   22 1
   2    1   30 1
   3    1   31 1
   4    1   32 1
   5    2    3 am
   6    2   11 1
   7    2   18 1
   8    3    4 1
   9    3   16 2
  10    4    5 2
  11    4   33 1
  12    5    6 1
  13    5   34 1
  14    6    7 ar
  15    6   11 ar
  16    7    8 ar
  17    7   35 1
  18    8    9 ar
  19    9   10 ar
  20    9   15 ar
  21   10   11 ar
  22   10   12 ar
  23   12   13 ar
  24   12   36 1
  25   13   14 ar
  26   13   17 1
  27   14   15 ar
  28   14   37 1
  29   15   38 1
  30   17   25 2
  31   17   28 1
  32   18   19 ar
  33   18   23 ar
  34   19   20 ar
  35   19   39 1
  36   20   21 ar
  37   20   40 1
  38   21   22 ar
  39   21   24 1
  40   22   23 ar
  41   23   41 1
  42   25   26 1
  43   25   42 1
  44   26   27 1
  45   26   29 1
  46   27   28 2
  47   28   43 1
  48   29   44 1
  49   29   45 1
  50   29   46 1

#	End of record

