#	Name: ASD07930252
#	Creating user name:	WinNT
#	Creation time:	15. 06. 2019 21:12

#	Modifying user name:	WinNT
#	Modification time:	15. 06. 2019 21:12

#	Program:	/corina/corina34_cracker 3.40 0067  02.08.2006

@<TRIPOS>MOLECULE
ASD07930252
  57   61    0    0    0
SMALL
NO_CHARGES


@<TRIPOS>ATOM
   1 C1            -0.2780     0.4536    -1.6056 C.2     
   2 C2            -0.1310    -0.8946    -1.7850 C.2     
   3 C3             1.2017    -1.4854    -1.6396 C.2     
   4 N4             2.2432    -0.6926    -1.3331 N.am    
   5 C5             2.0698     0.6619    -1.1594 C.2     
   6 C6             0.8415     1.2333    -1.2896 C.2     
   7 C7             3.5917    -1.2534    -1.1738 C.3     
   8 C8             4.5909    -0.2799    -1.8166 C.3     
   9 N9             4.4815     1.0181    -1.1357 N.am    
  10 C10            3.2499     1.4908    -0.8283 C.2     
  11 C11            5.6819     1.7861    -0.7959 C.3     
  12 O12            3.1169     2.5735    -0.2915 O.2     
  13 O13            1.3644    -2.6838    -1.7947 O.2     
  14 N14           -1.2329    -1.6944    -2.1009 N.pl3   
  15 C15           -1.4269    -2.3828    -3.2565 C.2     
  16 N16           -2.5686    -3.0102    -3.1796 N.2     
  17 C17           -3.1389    -2.7521    -1.9931 C.2     
  18 C18           -2.3199    -1.9376    -1.3010 C.2     
  19 C19           -4.4644    -3.2863    -1.5149 C.3     
  20 C20            6.1013     2.6351    -1.9977 C.3     
  21 O21            5.1187     3.6456    -2.2332 O.3     
  22 C22            5.2674     4.4020    -3.3531 C.ar    
  23 C23            4.4101     5.4742    -3.5902 C.ar    
  24 C24            6.2753     4.1115    -4.2582 C.ar    
  25 C25            6.4258     4.8816    -5.3965 C.ar    
  26 C26            5.5717     5.9435    -5.6355 C.ar    
  27 C27            4.5664     6.2428    -4.7339 C.ar    
  28 N28            3.3910     5.7755    -2.6744 N.pl3   
  29 N29            3.1836     5.1521    -1.4371 N.2     
  30 C30            2.1401     5.7033    -0.8709 C.2     
  31 C31            1.6495     6.6944    -1.7278 C.2     
  32 C32            2.4387     6.7228    -2.8270 C.2     
  33 Cl33           5.7667     6.9067    -7.0666 Cl      
  34 C34            1.5657     5.3337     0.4724 C.3     
  35 F35            2.3734     4.3624     1.0736 F       
  36 F36            1.5175     6.4697     1.2875 F       
  37 F37            0.2732     4.8259     0.3032 F       
  38 H38           -1.2493     0.9138    -1.7114 H       
  39 H39            0.7291     2.2980    -1.1478 H       
  40 H40            3.8198    -1.3689    -0.1142 H       
  41 H41            3.6490    -2.2216    -1.6712 H       
  42 H42            5.6035    -0.6677    -1.7050 H       
  43 H43            4.3563    -0.1596    -2.8742 H       
  44 H44            5.4688     2.4370     0.0521 H       
  45 H45            6.4892     1.1019    -0.5349 H       
  46 H46           -0.7500    -2.4061    -4.0978 H       
  47 H47           -2.4899    -1.5454    -0.3092 H       
  48 H48           -4.3087    -4.2307    -0.9933 H       
  49 H49           -4.9222    -2.5673    -0.8356 H       
  50 H50           -5.1210    -3.4474    -2.3699 H       
  51 H51            7.0635     3.1045    -1.7928 H       
  52 H52            6.1874     1.9996    -2.8791 H       
  53 H53            6.9438     3.2835    -4.0744 H       
  54 H54            7.2123     4.6539    -6.1008 H       
  55 H55            3.9009     7.0722    -4.9225 H       
  56 H56            0.7943     7.3276    -1.5430 H       
  57 H57            2.3244     7.3801    -3.6763 H       
@<TRIPOS>BOND
   1    1    2 2
   2    1    6 1
   3    1   38 1
   4    2    3 1
   5    2   14 1
   6    3    4 am
   7    3   13 2
   8    4    5 1
   9    4    7 1
  10    5    6 2
  11    5   10 1
  12    6   39 1
  13    7    8 1
  14    7   40 1
  15    7   41 1
  16    8    9 1
  17    8   42 1
  18    8   43 1
  19    9   10 am
  20    9   11 1
  21   10   12 2
  22   11   20 1
  23   11   44 1
  24   11   45 1
  25   14   15 1
  26   14   18 1
  27   15   16 2
  28   15   46 1
  29   16   17 1
  30   17   18 2
  31   17   19 1
  32   18   47 1
  33   19   48 1
  34   19   49 1
  35   19   50 1
  36   20   21 1
  37   20   51 1
  38   20   52 1
  39   21   22 1
  40   22   23 ar
  41   22   24 ar
  42   23   27 ar
  43   23   28 1
  44   24   25 ar
  45   24   53 1
  46   25   26 ar
  47   25   54 1
  48   26   27 ar
  49   26   33 1
  50   27   55 1
  51   28   29 1
  52   28   32 1
  53   29   30 2
  54   30   31 1
  55   30   34 1
  56   31   32 2
  57   31   56 1
  58   32   57 1
  59   34   35 1
  60   34   36 1
  61   34   37 1

#	End of record

