#	Name: ASD00844522
#	Creating user name:	WinNT
#	Creation time:	15. 06. 2019 18:50

#	Modifying user name:	WinNT
#	Modification time:	15. 06. 2019 18:50

#	Program:	/corina/corina34_cracker 3.40 0067  02.08.2006

@<TRIPOS>MOLECULE
ASD00844522
 100  105    0    0    0
SMALL
NO_CHARGES


@<TRIPOS>ATOM
   1 F1            -0.0975    -3.1556     4.7114 F       
   2 C2            -0.0142     1.3803     0.0276 C.ar    
   3 C3             0.0033    -0.0066     0.0121 C.ar    
   4 C4             1.2149    -0.6826    -0.0059 C.ar    
   5 C5             2.4001     0.0266    -0.0082 C.ar    
   6 C6             2.3800     1.4092     0.0077 C.ar    
   7 C7             1.1742     2.0851     0.0252 C.ar    
   8 C8             1.2376    -2.1893    -0.0222 C.3     
   9 C9             0.4952    -2.7178    -1.2311 C.2     
  10 N10            2.6177    -2.6807    -0.0124 N.am    
  11 C11            3.4634    -2.3342    -1.0029 C.2     
  12 N12            4.7590    -2.7005    -0.9417 N.am    
  13 O13            3.0576    -1.6913    -1.9517 O.2     
  14 C14            5.2905    -3.3763     0.2497 C.3     
  15 C15            6.5169    -2.6053     0.7481 C.3     
  16 C16            7.5240    -2.4627    -0.3953 C.3     
  17 C17            6.8889    -1.6715    -1.5411 C.3     
  18 C18            5.6654    -2.4369    -2.0677 C.3     
  19 N19            8.7158    -1.7527     0.0880 N.3     
  20 C20            9.7549    -1.7008    -0.9498 C.3     
  21 C21           10.9449    -0.8868    -0.4363 C.3     
  22 N22           11.4628    -1.5034     0.7931 N.3     
  23 C23           10.4237    -1.5553     1.8309 C.3     
  24 C24            9.2337    -2.3693     1.3174 C.3     
  25 C25           12.6546    -0.7934     1.2764 C.3     
  26 O26            0.7752    -2.5153    -2.3937 O.2     
  27 N27           -0.5320    -3.4537    -0.7742 N.am    
  28 C28            0.4669    -2.7433     1.1541 C.ar    
  29 C29           -0.5771    -3.4890     0.6211 C.ar    
  30 C30            0.6301    -2.6296     2.5165 C.ar    
  31 C31           -0.2542    -3.2641     3.3739 C.ar    
  32 C32           -1.3003    -4.0114     2.8542 C.ar    
  33 C33           -1.4637    -4.1252     1.4869 C.ar    
  34 F34           -2.1637    -4.6309     3.6884 F       
  35 C35           -0.9835    -5.8424    -2.0644 C.ar    
  36 C36            0.1958    -5.9965    -2.7790 C.ar    
  37 C37           -1.6566    -6.9530    -1.5917 C.ar    
  38 C38           -1.1571    -8.2190    -1.8289 C.ar    
  39 C39            0.0222    -8.3785    -2.5432 C.ar    
  40 C40            0.6989    -7.2661    -3.0187 C.ar    
  41 O41            0.5128    -9.6241    -2.7766 O.3     
  42 O42            0.8569    -4.9040    -3.2439 O.3     
  43 C43           -0.2368   -10.7244    -2.2575 C.3     
  44 C44            2.0645    -5.1374    -3.9715 C.3     
  45 C45            2.6620    -3.7992    -4.4108 C.3     
  46 C46           13.0167    -1.2979     2.6747 C.3     
  47 C47           14.2579    -0.5584     3.1781 C.3     
  48 O48           -1.1642    -0.7021     0.0149 O.3     
  49 C49           -2.3731     0.0596     0.0342 C.3     
  50 C50           -3.5736    -0.8889     0.0345 C.3     
  51 F51           -3.5410    -1.6827    -1.1170 F       
  52 F52           -3.5205    -1.7080     1.1673 F       
  53 S53           -1.6197    -4.2290    -1.7530 S.o2    
  54 O54           -2.7997    -4.4050    -0.9812 O.2     
  55 O55           -1.5999    -3.5429    -2.9972 O.2     
  56 H56           -0.9560     1.9089     0.0370 H       
  57 H57            3.3434    -0.4991    -0.0222 H       
  58 H58            3.3078     1.9619     0.0066 H       
  59 H59            1.1611     3.1650     0.0376 H       
  60 H60            2.9228    -3.2553     0.7070 H       
  61 H61            4.5289    -3.3950     1.0294 H       
  62 H62            5.5790    -4.3957    -0.0066 H       
  63 H63            6.2110    -1.6162     1.0890 H       
  64 H64            6.9776    -3.1486     1.5731 H       
  65 H65            7.8107    -3.4519    -0.7522 H       
  66 H66            6.5796    -0.6912    -1.1787 H       
  67 H67            7.6145    -1.5502    -2.3454 H       
  68 H68            5.9872    -3.3785    -2.5128 H       
  69 H69            5.1512    -1.8336    -2.8157 H       
  70 H70           10.0822    -2.7130    -1.1877 H       
  71 H71            9.3510    -1.2290    -1.8456 H       
  72 H72           11.7288    -0.8714    -1.1934 H       
  73 H73           10.6236     0.1329    -0.2242 H       
  74 H74           10.8276    -2.0271     2.7267 H       
  75 H75           10.0964    -0.5431     2.0688 H       
  76 H76            8.4498    -2.3848     2.0745 H       
  77 H77            9.5551    -3.3890     1.1053 H       
  78 H78           13.4871    -0.9767     0.5972 H       
  79 H79           12.4484     0.2761     1.3181 H       
  80 H80            1.4466    -2.0468     2.9163 H       
  81 H81           -2.2808    -4.7084     1.0886 H       
  82 H82           -2.5743    -6.8310    -1.0356 H       
  83 H83           -1.6845    -9.0854    -1.4578 H       
  84 H84            1.6165    -7.3882    -3.5751 H       
  85 H85            0.2636   -11.6582    -2.5138 H       
  86 H86           -0.3083   -10.6361    -1.1734 H       
  87 H87           -1.2376   -10.7181    -2.6893 H       
  88 H88            2.7768    -5.6618    -3.3346 H       
  89 H89            1.8475    -5.7445    -4.8504 H       
  90 H90            1.9496    -3.2748    -5.0477 H       
  91 H91            2.8790    -3.1922    -3.5319 H       
  92 H92            3.5831    -3.9773    -4.9658 H       
  93 H93           12.1841    -1.1146     3.3540 H       
  94 H94           13.2228    -2.3674     2.6330 H       
  95 H95           14.5159    -0.9178     4.1743 H       
  96 H96           15.0904    -0.7418     2.4989 H       
  97 H97           14.0517     0.5111     3.2198 H       
  98 H98           -2.3985     0.6782     0.9313 H       
  99 H99           -2.4145     0.6979    -0.8485 H       
 100 H100          -4.4957    -0.3078     0.0492 H       
@<TRIPOS>BOND
   1    1   31 1
   2    2    3 ar
   3    2    7 ar
   4    2   56 1
   5    3    4 ar
   6    3   48 1
   7    4    5 ar
   8    4    8 1
   9    5    6 ar
  10    5   57 1
  11    6    7 ar
  12    6   58 1
  13    7   59 1
  14    8    9 1
  15    8   10 1
  16    8   28 1
  17    9   26 2
  18    9   27 am
  19   10   11 am
  20   10   60 1
  21   11   12 am
  22   11   13 2
  23   12   14 1
  24   12   18 1
  25   14   15 1
  26   14   61 1
  27   14   62 1
  28   15   16 1
  29   15   63 1
  30   15   64 1
  31   16   17 1
  32   16   19 1
  33   16   65 1
  34   17   18 1
  35   17   66 1
  36   17   67 1
  37   18   68 1
  38   18   69 1
  39   19   20 1
  40   19   24 1
  41   20   21 1
  42   20   70 1
  43   20   71 1
  44   21   22 1
  45   21   72 1
  46   21   73 1
  47   22   23 1
  48   22   25 1
  49   23   24 1
  50   23   74 1
  51   23   75 1
  52   24   76 1
  53   24   77 1
  54   25   46 1
  55   25   78 1
  56   25   79 1
  57   27   53 am
  58   27   29 1
  59   28   29 ar
  60   28   30 ar
  61   29   33 ar
  62   30   31 ar
  63   30   80 1
  64   31   32 ar
  65   32   33 ar
  66   32   34 1
  67   33   81 1
  68   35   36 ar
  69   35   37 ar
  70   35   53 1
  71   36   42 1
  72   36   40 ar
  73   37   38 ar
  74   37   82 1
  75   38   39 ar
  76   38   83 1
  77   39   40 ar
  78   39   41 1
  79   40   84 1
  80   41   43 1
  81   42   44 1
  82   43   85 1
  83   43   86 1
  84   43   87 1
  85   44   45 1
  86   44   88 1
  87   44   89 1
  88   45   90 1
  89   45   91 1
  90   45   92 1
  91   46   47 1
  92   46   93 1
  93   46   94 1
  94   47   95 1
  95   47   96 1
  96   47   97 1
  97   48   49 1
  98   49   50 1
  99   49   98 1
 100   49   99 1
 101   50   51 1
 102   50   52 1
 103   50  100 1
 104   53   54 2
 105   53   55 2

#	End of record

