#	Name: ASD01914343
#	Creating user name:	WinNT
#	Creation time:	15. 06. 2019 20:03

#	Modifying user name:	WinNT
#	Modification time:	15. 06. 2019 20:03

#	Program:	/corina/corina34_cracker 3.40 0067  02.08.2006

@<TRIPOS>MOLECULE
ASD01914343
  42   45    0    0    0
SMALL
NO_CHARGES


@<TRIPOS>ATOM
   1 C1            -0.4412     2.1726    -0.5414 C.ar    
   2 C2            -0.5581     0.8065    -0.3627 C.ar    
   3 C3             0.5662     0.0405    -0.1157 C.ar    
   4 C4             1.8096     0.6386    -0.0474 C.ar    
   5 C5             1.9296     2.0090    -0.2268 C.ar    
   6 C6             0.8000     2.7755    -0.4740 C.ar    
   7 O7             3.1516     2.5998    -0.1596 O.3     
   8 C8             3.1998     4.0147    -0.3542 C.3     
   9 C9             4.6262     4.4885    -0.2451 C.2     
  10 N10            5.6310     3.6924    -0.0082 N.2     
  11 C11            6.8199     4.5272     0.0561 C.3     
  12 C12            6.3540     5.7426    -0.8156 C.3     
  13 O13            4.9972     5.7919    -0.3900 O.3     
  14 C14            8.0995     4.0251    -0.5658 C.3     
  15 C15            9.0673     5.1962    -0.7501 C.3     
  16 N16            8.5727     6.4766    -0.2710 N.am    
  17 C17            7.2643     6.8503    -0.3629 C.2     
  18 O18            6.8727     7.9688    -0.1047 O.2     
  19 C19            9.4812     7.3668     0.3120 C.ar    
  20 C20            9.3925     7.6647     1.6655 C.ar    
  21 C21           10.2908     8.5439     2.2380 C.ar    
  22 C22           11.2776     9.1276     1.4648 C.ar    
  23 C23           11.3683     8.8333     0.1167 C.ar    
  24 C24           10.4772     7.9499    -0.4604 C.ar    
  25 H25           -1.3203     2.7681    -0.7383 H       
  26 H26           -1.5292     0.3370    -0.4158 H       
  27 H27            0.4722    -1.0263     0.0242 H       
  28 H28            2.6874     0.0399     0.1459 H       
  29 H29            0.8908     3.8424    -0.6143 H       
  30 H30            2.8103     4.2590    -1.3425 H       
  31 H31            2.5942     4.5069     0.4068 H       
  32 H32            6.9938     4.8492     1.0828 H       
  33 H33            6.4367     5.5479    -1.8849 H       
  34 H34            8.5523     3.2783     0.0864 H       
  35 H35            7.8814     3.5775    -1.5354 H       
  36 H36            9.9924     4.9649    -0.2221 H       
  37 H37            9.2956     5.2905    -1.8117 H       
  38 H38            8.6216     7.2097     2.2698 H       
  39 H39           10.2223     8.7760     3.2905 H       
  40 H40           11.9786     9.8150     1.9147 H       
  41 H41           12.1397     9.2914    -0.4847 H       
  42 H42           10.5518     7.7166    -1.5122 H       
@<TRIPOS>BOND
   1    1    2 ar
   2    1    6 ar
   3    1   25 1
   4    2    3 ar
   5    2   26 1
   6    3    4 ar
   7    3   27 1
   8    4    5 ar
   9    4   28 1
  10    5    6 ar
  11    5    7 1
  12    6   29 1
  13    7    8 1
  14    8    9 1
  15    8   30 1
  16    8   31 1
  17    9   10 2
  18    9   13 1
  19   10   11 1
  20   11   12 1
  21   11   14 1
  22   11   32 1
  23   12   13 1
  24   12   17 1
  25   12   33 1
  26   14   15 1
  27   14   34 1
  28   14   35 1
  29   15   16 1
  30   15   36 1
  31   15   37 1
  32   16   17 am
  33   16   19 1
  34   17   18 2
  35   19   20 ar
  36   19   24 ar
  37   20   21 ar
  38   20   38 1
  39   21   22 ar
  40   21   39 1
  41   22   23 ar
  42   22   40 1
  43   23   24 ar
  44   23   41 1
  45   24   42 1

#	End of record

