#	Name: ASD00431413
#	Creating user name:	WinNT
#	Creation time:	15. 06. 2019 18:35

#	Modifying user name:	WinNT
#	Modification time:	15. 06. 2019 18:35

#	Program:	/corina/corina34_cracker 3.40 0067  02.08.2006

@<TRIPOS>MOLECULE
ASD00431413
  21   21    0    0    0
SMALL
NO_CHARGES


@<TRIPOS>ATOM
   1 C1            -0.0897     1.2342     0.0059 C.ar    
   2 C2             1.0246     2.0576     0.0079 C.ar    
   3 C3             2.2860     1.4869    -0.0055 C.ar    
   4 C4             2.3846     0.0987    -0.0206 C.ar    
   5 C5             1.2246    -0.6597    -0.0217 C.ar    
   6 N6             0.0399    -0.0793    -0.0086 N.ar    
   7 O7             3.6025    -0.5054    -0.0345 O.3     
   8 C8             4.7462     0.3433    -0.1519 C.3     
   9 C9             5.1483     0.8518     1.2340 C.3     
  10 C10            5.9064    -0.4459    -0.7619 C.3     
  11 F11           -1.3243     1.7825     0.0245 F       
  12 H12            0.9107     3.1315     0.0194 H       
  13 H13            3.1722     2.1042    -0.0047 H       
  14 H14            1.2911    -1.7376    -0.0333 H       
  15 H15            4.5057     1.1905    -0.7941 H       
  16 H16            5.3888     0.0046     1.8762 H       
  17 H17            6.0207     1.4991     1.1445 H       
  18 H18            4.3218     1.4140     1.6686 H       
  19 H19            5.6200    -0.8082    -1.7492 H       
  20 H20            6.7788     0.2014    -0.8514 H       
  21 H21            6.1470    -1.2931    -0.1197 H       
@<TRIPOS>BOND
   1    1    2 ar
   2    1    6 ar
   3    1   11 1
   4    2    3 ar
   5    2   12 1
   6    3    4 ar
   7    3   13 1
   8    4    5 ar
   9    4    7 1
  10    5    6 ar
  11    5   14 1
  12    7    8 1
  13    8    9 1
  14    8   10 1
  15    8   15 1
  16    9   16 1
  17    9   17 1
  18    9   18 1
  19   10   19 1
  20   10   20 1
  21   10   21 1

#	End of record

