#	Name: ASD01140367
#	Creating user name:	WinNT
#	Creation time:	15. 06. 2019 19:00

#	Modifying user name:	WinNT
#	Modification time:	15. 06. 2019 19:00

#	Program:	/corina/corina34_cracker 3.40 0067  02.08.2006

@<TRIPOS>MOLECULE
ASD01140367
  45   49    0    0    0
SMALL
NO_CHARGES


@<TRIPOS>ATOM
   1 S1            -0.0211     1.7052     0.0114 S.3     
   2 C2             0.0021    -0.0041     0.0020 C.2     
   3 N3             1.2234    -0.4376    -0.0120 N.2     
   4 C4             2.1810     0.4671    -0.0163 C.2     
   5 C5             1.7403     1.7409    -0.0052 C.2     
   6 N6             4.7337     6.4869    -0.0107 N.pl3   
   7 C7             3.7244     7.4104     0.0031 C.2     
   8 C8             2.5348     6.7887     0.0118 C.2     
   9 C9             2.8042     5.3484     0.0027 C.ar    
  10 C10            1.9950     4.2122     0.0052 C.ar    
  11 C11            2.5858     2.9541    -0.0072 C.ar    
  12 C12            3.9814     2.8344    -0.0212 C.ar    
  13 C13            4.7753     3.9442    -0.0232 C.ar    
  14 C14            4.2050     5.2143    -0.0113 C.ar    
  15 O15           -1.0994    -0.7932     0.0087 O.3     
  16 C16           -1.8743    -4.4224     0.5835 C.3     
  17 C17           -2.0384    -2.9010     0.7288 C.3     
  18 C18           -0.8853    -2.2061    -0.0010 C.3     
  19 C19           -0.8168    -2.7009    -1.4486 C.3     
  20 C20           -0.7355    -4.2359    -1.4464 C.3     
  21 C21            0.3459    -4.6507    -0.4222 C.3     
  22 C22           -0.4067    -4.7740     0.9191 C.3     
  23 N23           -2.0056    -4.7437    -0.8626 N.3     
  24 C24           -2.1384    -6.1918    -1.0702 C.3     
  25 H25            3.2299     0.2101    -0.0277 H       
  26 H26            5.6807     6.6967    -0.0226 H       
  27 H27            3.8642     8.4813     0.0071 H       
  28 H28            1.5634     7.2605     0.0235 H       
  29 H29            0.9195     4.3092     0.0166 H       
  30 H30            4.4337     1.8537    -0.0301 H       
  31 H31            5.8499     3.8370    -0.0337 H       
  32 H32           -2.5821    -4.9727     1.2034 H       
  33 H33           -2.9871    -2.5925     0.2897 H       
  34 H34           -2.0178    -2.6308     1.7846 H       
  35 H35            0.0533    -2.4340     0.5041 H       
  36 H36           -1.7106    -2.3835    -1.9856 H       
  37 H37            0.0683    -2.2892    -1.9336 H       
  38 H38           -0.5379    -4.6380    -2.4400 H       
  39 H39            0.7843    -5.6090    -0.7006 H       
  40 H40            1.1182    -3.8846    -0.3548 H       
  41 H41           -0.0043    -4.0685     1.6460 H       
  42 H42           -0.3383    -5.7929     1.3001 H       
  43 H43           -3.0253    -6.5536    -0.5500 H       
  44 H44           -2.2328    -6.3989    -2.1362 H       
  45 H45           -1.2558    -6.6975    -0.6786 H       
@<TRIPOS>BOND
   1    1    2 1
   2    1    5 1
   3    2    3 2
   4    2   15 1
   5    3    4 1
   6    4    5 2
   7    4   25 1
   8    5   11 1
   9    6    7 1
  10    6   14 1
  11    6   26 1
  12    7    8 2
  13    7   27 1
  14    8    9 1
  15    8   28 1
  16    9   10 ar
  17    9   14 ar
  18   10   11 ar
  19   10   29 1
  20   11   12 ar
  21   12   13 ar
  22   12   30 1
  23   13   14 ar
  24   13   31 1
  25   15   18 1
  26   16   17 1
  27   16   22 1
  28   16   23 1
  29   16   32 1
  30   17   18 1
  31   17   33 1
  32   17   34 1
  33   18   19 1
  34   18   35 1
  35   19   20 1
  36   19   36 1
  37   19   37 1
  38   20   21 1
  39   20   23 1
  40   20   38 1
  41   21   22 1
  42   21   39 1
  43   21   40 1
  44   22   41 1
  45   22   42 1
  46   23   24 1
  47   24   43 1
  48   24   44 1
  49   24   45 1

#	End of record

