#	Name: ASD01730026
#	Creating user name:	WinNT
#	Creation time:	15. 06. 2019 19:23

#	Modifying user name:	WinNT
#	Modification time:	15. 06. 2019 19:23

#	Program:	/corina/corina34_cracker 3.40 0067  02.08.2006

@<TRIPOS>MOLECULE
ASD01730026
  31   32    0    0    0
SMALL
NO_CHARGES


@<TRIPOS>ATOM
   1 C1             0.2521     1.9284    -0.9037 C.2     
   2 C2             0.6672     0.9121    -1.9361 C.3     
   3 N3             1.0683     2.2437     0.0691 N.2     
   4 N4            -0.9689     2.5221    -0.9863 N.pl3   
   5 C5            -1.3725     3.5101     0.0173 C.3     
   6 C6            -2.7788     4.0193    -0.3050 C.3     
   7 N7             2.2170     0.2877     0.4280 N.2     
   8 C8             2.2340     1.5770     0.2156 C.2     
   9 S9             3.7571     2.4571     0.1172 S.3     
  10 C10            4.7341     1.4848     1.2914 C.3     
  11 C11            4.5525     0.0185     0.9921 C.ar    
  12 C12            3.3227    -0.4897     0.5792 C.ar    
  13 C13            5.6370    -0.8267     1.1335 C.ar    
  14 C14            5.5125    -2.1771     0.8644 C.ar    
  15 C15            4.2969    -2.6917     0.4498 C.ar    
  16 C16            3.2078    -1.8617     0.3063 C.ar    
  17 H17            0.4526    -0.0904    -1.5659 H       
  18 H18            0.1137     1.0849    -2.8590 H       
  19 H19            1.7357     1.0068    -2.1300 H       
  20 H20           -1.5725     2.2913    -1.7097 H       
  21 H21           -1.3711     3.0470     1.0041 H       
  22 H22           -0.6723     4.3454     0.0070 H       
  23 H23           -3.0790     4.7544     0.4417 H       
  24 H24           -2.7802     4.4824    -1.2918 H       
  25 H25           -3.4789     3.1840    -0.2946 H       
  26 H26            5.7873     1.7485     1.1951 H       
  27 H27            4.3968     1.6937     2.3066 H       
  28 H28            6.5880    -0.4295     1.4561 H       
  29 H29            6.3649    -2.8307     0.9776 H       
  30 H30            4.2023    -3.7465     0.2380 H       
  31 H31            2.2609    -2.2681    -0.0172 H       
@<TRIPOS>BOND
   1    1    2 1
   2    1    3 2
   3    1    4 1
   4    2   17 1
   5    2   18 1
   6    2   19 1
   7    3    8 1
   8    4    5 1
   9    4   20 1
  10    5    6 1
  11    5   21 1
  12    5   22 1
  13    6   23 1
  14    6   24 1
  15    6   25 1
  16    7    8 2
  17    7   12 1
  18    8    9 1
  19    9   10 1
  20   10   11 1
  21   10   26 1
  22   10   27 1
  23   11   12 ar
  24   11   13 ar
  25   12   16 ar
  26   13   14 ar
  27   13   28 1
  28   14   15 ar
  29   14   29 1
  30   15   16 ar
  31   15   30 1
  32   16   31 1

#	End of record

