#	Name: ASD02610008
#	Creating user name:	WinNT
#	Creation time:	15. 06. 2019 20:25

#	Modifying user name:	WinNT
#	Modification time:	15. 06. 2019 20:25

#	Program:	/corina/corina34_cracker 3.40 0067  02.08.2006

@<TRIPOS>MOLECULE
ASD02610008
 105  107    0    0    0
SMALL
NO_CHARGES


@<TRIPOS>ATOM
   1 C1             0.0631     1.4937     0.1002 C.3     
   2 C2             0.1195    -0.0542     0.0835 C.3     
   3 C3             1.4789    -0.3888     0.6527 C.2     
   4 C4             2.2696     0.6602     0.6342 C.2     
   5 C5             1.5663     1.8327     0.0173 C.3     
   6 C6             3.6438     0.7099     1.2247 C.3     
   7 C7             4.4949     1.6845     0.3687 C.3     
   8 C8             4.3733     1.5406    -1.0797 C.3     
   9 C9             3.3496     2.4959    -1.6664 C.3     
  10 C10            1.9542     1.9760    -1.4523 C.3     
  11 O11            0.0028    -0.5511    -1.2759 O.3     
  12 C12           -0.5720    -1.7595    -1.4385 C.2     
  13 O13           -0.9648    -2.3808    -0.4707 O.2     
  14 C14           -0.7235    -2.3256    -2.7861 C.2     
  15 C15           -0.2364    -1.5553    -3.9862 C.3     
  16 C16           -1.2910    -3.5187    -2.9467 C.2     
  17 C17           -1.7781    -4.2890    -1.7466 C.3     
  18 C18            1.8749    -1.7465     1.1732 C.3     
  19 O19           -0.5183     1.9845     1.3369 O.3     
  20 H20            1.7838     2.7446     0.5734 H       
  21 O21            1.0335     2.8695    -2.0817 O.3     
  22 C22            1.8352     0.6066    -2.1242 C.3     
  23 O23            3.9765     0.1780    -1.3864 O.3     
  24 C24            4.3912    -0.3284    -2.5583 C.2     
  25 C25            4.0182    -1.7364    -2.9449 C.3     
  26 O26            5.0635     0.3447    -3.3032 O.2     
  27 O27            3.9898     1.0741     2.5329 O.3     
  28 C28            5.4522     1.0250     2.4815 C.3     
  29 C29            5.8688     1.2999     1.0064 C.3     
  30 H30            4.0872    -0.2726     1.0632 H       
  31 O31            4.1709     3.0293     0.7272 O.3     
  32 C32            4.6127    -2.0631    -4.3164 C.3     
  33 C33            4.2341    -3.4926    -4.7089 C.3     
  34 C34            6.8592     2.4630     0.9221 C.3     
  35 C35           -1.8455     2.1848     1.3489 C.2     
  36 C36           -2.5195     2.6931     2.5973 C.3     
  37 C37           -4.0220     2.8328     2.3448 C.3     
  38 C38           -4.7063     3.3488     3.6122 C.3     
  39 C39           -6.2089     3.4885     3.3598 C.3     
  40 C40           -6.8932     4.0046     4.6272 C.3     
  41 O41           -2.4998     1.9576     0.3589 O.2     
  42 O42            6.0031     2.0278     3.3376 O.3     
  43 O43            6.4070     0.1247     0.3970 O.3     
  44 C44           -8.3957     4.1442     4.3747 C.3     
  45 C45           -9.0800     4.6603     5.6422 C.3     
  46 C46            4.8286    -3.8193    -6.0803 C.3     
  47 C47            4.4499    -5.2488    -6.4728 C.3     
  48 C48            5.0444    -5.5756    -7.8442 C.3     
  49 C49            4.6658    -7.0051    -8.2368 C.3     
  50 H50           -0.4759     1.8778    -0.7659 H       
  51 H51           -0.6687    -0.4706     0.7107 H       
  52 H52            5.3430     1.7365    -1.5374 H       
  53 H53            3.4483     3.4685    -1.1843 H       
  54 H54            3.5319     2.6055    -2.7354 H       
  55 H55            0.8014    -1.8188    -4.1904 H       
  56 H56           -0.8512    -1.8035    -4.8514 H       
  57 H57           -0.3070    -0.4864    -3.7850 H       
  58 H58           -1.4024    -3.9347    -3.9371 H       
  59 H59           -2.5355    -3.7055    -1.2232 H       
  60 H60           -2.2098    -5.2352    -2.0729 H       
  61 H61           -0.9415    -4.4836    -1.0756 H       
  62 H62            1.0348    -2.4335     1.0725 H       
  63 H63            2.7224    -2.1223     0.6000 H       
  64 H64            2.1542    -1.6655     2.2237 H       
  65 H65            1.2084     3.0170    -3.0212 H       
  66 H66            0.8182     0.4693    -2.4916 H       
  67 H67            2.5339     0.5495    -2.9588 H       
  68 H68            2.0687    -0.1746    -1.4007 H       
  69 H69            4.4105    -2.4327    -2.2037 H       
  70 H70            2.9328    -1.8257    -2.9888 H       
  71 H71            5.8014     0.0390     2.7882 H       
  72 H72            4.6645     3.6980     0.2327 H       
  73 H73            4.2205    -1.3668    -5.0576 H       
  74 H74            5.6982    -1.9738    -4.2725 H       
  75 H75            4.6263    -4.1889    -3.9676 H       
  76 H76            3.1486    -3.5819    -4.7528 H       
  77 H77            6.4555     3.3234     1.4559 H       
  78 H78            7.8063     2.1672     1.3733 H       
  79 H79            7.0214     2.7272    -0.1229 H       
  80 H80           -2.3519     1.9896     3.4128 H       
  81 H81           -2.1041     3.6648     2.8645 H       
  82 H82           -4.1896     3.5363     1.5293 H       
  83 H83           -4.4374     1.8611     2.0776 H       
  84 H84           -4.5388     2.6453     4.4278 H       
  85 H85           -4.2909     4.3205     3.8795 H       
  86 H86           -6.3764     4.1920     2.5443 H       
  87 H87           -6.6243     2.5168     3.0925 H       
  88 H88           -6.7256     3.3010     5.4427 H       
  89 H89           -6.4778     4.9762     4.8944 H       
  90 H90            5.7689     1.9212     4.2697 H       
  91 H91            7.2593    -0.1519     0.7607 H       
  92 H92           -8.5633     4.8477     3.5592 H       
  93 H93           -8.8111     3.1726     4.1075 H       
  94 H94          -10.1505     4.7598     5.4623 H       
  95 H95           -8.9125     3.9568     6.4577 H       
  96 H96           -8.6646     5.6320     5.9094 H       
  97 H97            4.4364    -3.1230    -6.8215 H       
  98 H98            5.9140    -3.7300    -6.0364 H       
  99 H99            4.8421    -5.9451    -5.7316 H       
 100 H100           3.3645    -5.3382    -6.5167 H       
 101 H101           4.6522    -4.8793    -8.5855 H       
 102 H102           6.1298    -5.4862    -7.8004 H       
 103 H103           5.0580    -7.7014    -7.4955 H       
 104 H104           3.5803    -7.0944    -8.2806 H       
 105 H105           5.0893    -7.2378    -9.2138 H       
@<TRIPOS>BOND
   1    1    2 1
   2    1    5 1
   3    1   19 1
   4    1   50 1
   5    2    3 1
   6    2   11 1
   7    2   51 1
   8    3    4 2
   9    3   18 1
  10    4    5 1
  11    4    6 1
  12    5   10 1
  13    5   20 1
  14    6    7 1
  15    6   27 1
  16    6   30 1
  17    7   29 1
  18    7   31 1
  19    7    8 1
  20    8    9 1
  21    8   23 1
  22    8   52 1
  23    9   10 1
  24    9   53 1
  25    9   54 1
  26   10   21 1
  27   10   22 1
  28   11   12 1
  29   12   13 2
  30   12   14 1
  31   14   15 1
  32   14   16 2
  33   15   55 1
  34   15   56 1
  35   15   57 1
  36   16   17 1
  37   16   58 1
  38   17   59 1
  39   17   60 1
  40   17   61 1
  41   18   62 1
  42   18   63 1
  43   18   64 1
  44   19   35 1
  45   21   65 1
  46   22   66 1
  47   22   67 1
  48   22   68 1
  49   23   24 1
  50   24   25 1
  51   24   26 2
  52   25   32 1
  53   25   69 1
  54   25   70 1
  55   27   28 1
  56   28   29 1
  57   28   42 1
  58   28   71 1
  59   29   34 1
  60   29   43 1
  61   31   72 1
  62   32   33 1
  63   32   73 1
  64   32   74 1
  65   33   46 1
  66   33   75 1
  67   33   76 1
  68   34   77 1
  69   34   78 1
  70   34   79 1
  71   35   36 1
  72   35   41 2
  73   36   37 1
  74   36   80 1
  75   36   81 1
  76   37   38 1
  77   37   82 1
  78   37   83 1
  79   38   39 1
  80   38   84 1
  81   38   85 1
  82   39   40 1
  83   39   86 1
  84   39   87 1
  85   40   44 1
  86   40   88 1
  87   40   89 1
  88   42   90 1
  89   43   91 1
  90   44   45 1
  91   44   92 1
  92   44   93 1
  93   45   94 1
  94   45   95 1
  95   45   96 1
  96   46   47 1
  97   46   97 1
  98   46   98 1
  99   47   48 1
 100   47   99 1
 101   47  100 1
 102   48   49 1
 103   48  101 1
 104   48  102 1
 105   49  103 1
 106   49  104 1
 107   49  105 1

#	End of record

