#	Name: ASD00844672
#	Creating user name:	WinNT
#	Creation time:	15. 06. 2019 18:50

#	Modifying user name:	WinNT
#	Modification time:	15. 06. 2019 18:50

#	Program:	/corina/corina34_cracker 3.40 0067  02.08.2006

@<TRIPOS>MOLECULE
ASD00844672
 102  107    0    0    0
SMALL
NO_CHARGES


@<TRIPOS>ATOM
   1 C1             0.7444     1.1358    -0.2829 C.ar    
   2 C2             0.9549    -0.2029    -0.5788 C.ar    
   3 C3             0.8055    -1.1619     0.4128 C.ar    
   4 C4             0.4476    -0.7816     1.6915 C.ar    
   5 C5             0.2378     0.5537     1.9837 C.ar    
   6 C6             0.3865     1.5111     0.9977 C.ar    
   7 C7             1.0329    -2.6173     0.0947 C.3     
   8 C8             0.6826    -3.4821     1.2869 C.2     
   9 C9             0.2125    -3.0322    -1.1283 C.3     
  10 C10           -1.2379    -2.6937    -0.8985 C.2     
  11 N11           -2.1683    -3.0695    -1.7983 N.am    
  12 O12           -1.5679    -2.0831     0.0960 O.2     
  13 C13           -3.5715    -2.6538    -1.6518 C.3     
  14 C14           -4.0365    -2.0352    -2.9744 C.3     
  15 N15           -3.7796    -2.9794    -4.0700 N.3     
  16 C16           -2.3419    -3.2383    -4.2242 C.3     
  17 C17           -1.8062    -3.9012    -2.9561 C.3     
  18 C18           -4.3657    -2.4980    -5.3281 C.3     
  19 C19           -3.9732    -3.4407    -6.4691 C.3     
  20 C20           -4.6362    -2.9687    -7.7652 C.3     
  21 N21           -6.0947    -2.9581    -7.5948 N.3     
  22 C22           -6.4988    -2.0242    -6.5361 C.3     
  23 C23           -5.8915    -2.4680    -5.2033 C.3     
  24 C24           -6.7703    -2.6433    -8.8606 C.3     
  25 O25           -0.4058    -3.5756     1.8136 O.2     
  26 N26            1.8032    -4.1270     1.6517 N.am    
  27 C27            2.5030    -2.8864    -0.1335 C.ar    
  28 C28            2.8883    -3.8025     0.8424 C.ar    
  29 C29            3.4035    -2.4134    -1.0540 C.ar    
  30 C30            4.7315    -2.8534    -1.0184 C.ar    
  31 C31            5.1260    -3.7741    -0.0402 C.ar    
  32 C32            4.2114    -4.2430     0.8783 C.ar    
  33 F33            6.4058    -4.2051     0.0026 F       
  34 C34            1.5177    -6.7898     2.2859 C.ar    
  35 C35            0.2566    -7.0609     1.7748 C.ar    
  36 C36            2.4882    -7.7737     2.2922 C.ar    
  37 C37            2.2056    -9.0291     1.7894 C.ar    
  38 C38            0.9456    -9.3053     1.2771 C.ar    
  39 C39           -0.0296    -8.3203     1.2701 C.ar    
  40 O40            0.6681   -10.5405     0.7831 O.3     
  41 O41           -0.6974    -6.0931     1.7693 O.3     
  42 C42            1.7204   -11.5065     0.8227 C.3     
  43 C43           -1.9729    -6.4426     1.2279 C.3     
  44 C44           -2.9086    -5.2346     1.3066 C.3     
  45 C45           -8.2738    -2.8839    -8.7098 C.3     
  46 C46           -8.9775    -2.5560   -10.0282 C.3     
  47 O47            1.3066    -0.5746    -1.8377 O.3     
  48 C48            1.3679     0.4564    -2.8253 C.3     
  49 C49            1.8636    -0.1327    -4.1475 C.3     
  50 F50            3.0968    -0.7615    -3.9447 F       
  51 F51            0.9354    -1.0675    -4.6186 F       
  52 S52            1.8845    -5.1876     2.9208 S.o2    
  53 O53            3.2449    -5.2200     3.3302 O.2     
  54 O54            0.8174    -4.8489     3.7959 O.2     
  55 C55            5.6792    -2.3661    -1.9750 C.1     
  56 N56            6.4309    -1.9795    -2.7339 N.1     
  57 H57            0.8645     1.8846    -1.0519 H       
  58 H58            0.3311    -1.5277     2.4636 H       
  59 H59           -0.0427     0.8490     2.9840 H       
  60 H60            0.2222     2.5533     1.2285 H       
  61 H61            0.5753    -2.4990    -2.0070 H       
  62 H62            0.3144    -4.1058    -1.2869 H       
  63 H63           -4.1878    -3.5215    -1.4167 H       
  64 H64           -3.6533    -1.9160    -0.8537 H       
  65 H65           -5.1042    -1.8221    -2.9207 H       
  66 H66           -3.4893    -1.1101    -3.1556 H       
  67 H67           -2.1804    -3.8978    -5.0769 H       
  68 H68           -1.8182    -2.2965    -4.3880 H       
  69 H69           -0.7217    -3.9906    -3.0198 H       
  70 H70           -2.2519    -4.8894    -2.8432 H       
  71 H71           -3.9969    -1.4947    -5.5414 H       
  72 H72           -2.8901    -3.4335    -6.5908 H       
  73 H73           -4.3072    -4.4520    -6.2368 H       
  74 H74           -4.2911    -1.9628    -8.0041 H       
  75 H75           -4.3702    -3.6461    -8.5767 H       
  76 H76           -6.1451    -1.0227    -6.7808 H       
  77 H77           -7.5858    -2.0155    -6.4549 H       
  78 H78           -6.2557    -3.4639    -4.9511 H       
  79 H79           -6.1788    -1.7658    -4.4207 H       
  80 H80           -6.5934    -1.5988    -9.1169 H       
  81 H81           -6.3775    -3.2829    -9.6510 H       
  82 H82            3.0882    -1.7035    -1.8045 H       
  83 H83            4.5211    -4.9533     1.6306 H       
  84 H84            3.4692    -7.5608     2.6904 H       
  85 H85            2.9659    -9.7962     1.7948 H       
  86 H86           -1.0108    -8.5333     0.8722 H       
  87 H87            2.0279   -11.6666     1.8560 H       
  88 H88            1.3668   -12.4465     0.3990 H       
  89 H89            2.5690   -11.1432     0.2431 H       
  90 H90           -1.8556    -6.7441     0.1871 H       
  91 H91           -2.3965    -7.2681     1.7998 H       
  92 H92           -3.8815    -5.5011     0.8937 H       
  93 H93           -3.0259    -4.9331     2.3475 H       
  94 H94           -2.4850    -4.4090     0.7347 H       
  95 H95           -8.4507    -3.9285    -8.4535 H       
  96 H96           -8.6666    -2.2443    -7.9194 H       
  97 H97           -8.8005    -1.5115   -10.2845 H       
  98 H98           -8.5846    -3.1956   -10.8186 H       
  99 H99          -10.0485    -2.7274    -9.9208 H       
 100 H100           0.3751     0.8831    -2.9672 H       
 101 H101           2.0546     1.2357    -2.4947 H       
 102 H102           1.9790     0.6657    -4.8804 H       
@<TRIPOS>BOND
   1    1    2 ar
   2    1    6 ar
   3    1   57 1
   4    2    3 ar
   5    2   47 1
   6    3    4 ar
   7    3    7 1
   8    4    5 ar
   9    4   58 1
  10    5    6 ar
  11    5   59 1
  12    6   60 1
  13    7    8 1
  14    7    9 1
  15    7   27 1
  16    8   25 2
  17    8   26 am
  18    9   10 1
  19    9   61 1
  20    9   62 1
  21   10   11 am
  22   10   12 2
  23   11   13 1
  24   11   17 1
  25   13   14 1
  26   13   63 1
  27   13   64 1
  28   14   15 1
  29   14   65 1
  30   14   66 1
  31   15   16 1
  32   15   18 1
  33   16   17 1
  34   16   67 1
  35   16   68 1
  36   17   69 1
  37   17   70 1
  38   18   19 1
  39   18   23 1
  40   18   71 1
  41   19   20 1
  42   19   72 1
  43   19   73 1
  44   20   21 1
  45   20   74 1
  46   20   75 1
  47   21   22 1
  48   21   24 1
  49   22   23 1
  50   22   76 1
  51   22   77 1
  52   23   78 1
  53   23   79 1
  54   24   45 1
  55   24   80 1
  56   24   81 1
  57   26   52 am
  58   26   28 1
  59   27   28 ar
  60   27   29 ar
  61   28   32 ar
  62   29   30 ar
  63   29   82 1
  64   30   31 ar
  65   30   55 1
  66   31   32 ar
  67   31   33 1
  68   32   83 1
  69   34   35 ar
  70   34   36 ar
  71   34   52 1
  72   35   41 1
  73   35   39 ar
  74   36   37 ar
  75   36   84 1
  76   37   38 ar
  77   37   85 1
  78   38   39 ar
  79   38   40 1
  80   39   86 1
  81   40   42 1
  82   41   43 1
  83   42   87 1
  84   42   88 1
  85   42   89 1
  86   43   44 1
  87   43   90 1
  88   43   91 1
  89   44   92 1
  90   44   93 1
  91   44   94 1
  92   45   46 1
  93   45   95 1
  94   45   96 1
  95   46   97 1
  96   46   98 1
  97   46   99 1
  98   47   48 1
  99   48   49 1
 100   48  100 1
 101   48  101 1
 102   49   50 1
 103   49   51 1
 104   49  102 1
 105   52   53 2
 106   52   54 2
 107   55   56 3

#	End of record

