#	Name: ASD01882654
#	Creating user name:	WinNT
#	Creation time:	15. 06. 2019 19:45

#	Modifying user name:	WinNT
#	Modification time:	15. 06. 2019 19:45

#	Program:	/corina/corina34_cracker 3.40 0067  02.08.2006

@<TRIPOS>MOLECULE
ASD01882654
  55   58    0    0    0
SMALL
NO_CHARGES


@<TRIPOS>ATOM
   1 C1            -0.0311     1.3499    -0.1951 C.2     
   2 C2             0.0361    -0.0509    -0.1058 C.2     
   3 C3             1.2521    -0.6493     0.0838 C.2     
   4 C4             2.4129     0.1481     0.1859 C.2     
   5 C5             2.3253     1.4897     0.0974 C.2     
   6 N6             1.1177     2.0961    -0.0916 N.pl3   
   7 N7            -0.5677     3.4052    -0.3845 N.2     
   8 N8            -1.0272     2.2035    -0.3767 N.2     
   9 C9             0.7283     3.3974    -0.2163 C.2     
  10 C10           -1.2150    -0.8835    -0.2169 C.3     
  11 F11           -1.7209    -1.1380     1.0624 F       
  12 F12           -2.1712    -0.1906    -0.9671 F       
  13 F13           -0.9145    -2.0948    -0.8490 F       
  14 C14            1.6284     4.6052    -0.1706 C.3     
  15 O15            2.0836     4.9103    -1.4904 O.3     
  16 C16            2.9487     6.0456    -1.5589 C.3     
  17 C17            3.9275     5.8714    -2.7219 C.3     
  18 C18            2.1150     7.3095    -1.7790 C.3     
  19 N19            1.3440    -2.0348     0.1759 N.pl3   
  20 C20            0.7390    -2.7517     1.3068 C.3     
  21 C21            1.8076    -3.6339     1.9599 C.3     
  22 C22            2.4299    -4.5445     0.8989 C.3     
  23 C23            3.1014    -3.6902    -0.1788 C.3     
  24 C24            2.0425    -2.8092    -0.8591 C.3     
  25 C25            3.4579    -5.4377     1.5442 C.ar    
  26 C26            3.9305    -6.5476     0.8692 C.ar    
  27 C27            4.8734    -7.3670     1.4612 C.ar    
  28 C28            5.3440    -7.0762     2.7280 C.ar    
  29 C29            4.8720    -5.9659     3.4027 C.ar    
  30 C30            3.9323    -5.1441     2.8089 C.ar    
  31 F31            1.4306    -5.3304     0.3151 F       
  32 H32            3.3749    -0.3192     0.3359 H       
  33 H33            3.2191     2.0906     0.1771 H       
  34 H34            1.0754     5.4555     0.2286 H       
  35 H35            2.4851     4.3959     0.4699 H       
  36 H36            3.5052     6.1352    -0.6260 H       
  37 H37            3.3711     5.7818    -3.6548 H       
  38 H38            4.5874     6.7374    -2.7742 H       
  39 H39            4.5215     4.9710    -2.5651 H       
  40 H40            1.5585     7.2198    -2.7119 H       
  41 H41            1.4177     7.4336    -0.9505 H       
  42 H42            2.7749     8.1755    -1.8313 H       
  43 H43            0.3627    -2.0336     2.0354 H       
  44 H44           -0.0802    -3.3749     0.9482 H       
  45 H45            2.5818    -3.0037     2.3978 H       
  46 H46            1.3499    -4.2432     2.7391 H       
  47 H47            3.8633    -3.0595     0.2792 H       
  48 H48            3.5644    -4.3396    -0.9218 H       
  49 H49            1.3275    -3.4370    -1.3907 H       
  50 H50            2.5266    -2.1290    -1.5600 H       
  51 H51            3.5628    -6.7748    -0.1206 H       
  52 H52            5.2421    -8.2345     0.9340 H       
  53 H53            6.0801    -7.7168     3.1908 H       
  54 H54            5.2394    -5.7389     4.3926 H       
  55 H55            3.5663    -4.2745     3.3346 H       
@<TRIPOS>BOND
   1    1    2 1
   2    1    6 1
   3    1    8 2
   4    2    3 2
   5    2   10 1
   6    3    4 1
   7    3   19 1
   8    4    5 2
   9    4   32 1
  10    5    6 1
  11    5   33 1
  12    6    9 1
  13    7    8 1
  14    7    9 2
  15    9   14 1
  16   10   11 1
  17   10   12 1
  18   10   13 1
  19   14   15 1
  20   14   34 1
  21   14   35 1
  22   15   16 1
  23   16   17 1
  24   16   18 1
  25   16   36 1
  26   17   37 1
  27   17   38 1
  28   17   39 1
  29   18   40 1
  30   18   41 1
  31   18   42 1
  32   19   20 1
  33   19   24 1
  34   20   21 1
  35   20   43 1
  36   20   44 1
  37   21   22 1
  38   21   45 1
  39   21   46 1
  40   22   23 1
  41   22   25 1
  42   22   31 1
  43   23   24 1
  44   23   47 1
  45   23   48 1
  46   24   49 1
  47   24   50 1
  48   25   26 ar
  49   25   30 ar
  50   26   27 ar
  51   26   51 1
  52   27   28 ar
  53   27   52 1
  54   28   29 ar
  55   28   53 1
  56   29   30 ar
  57   29   54 1
  58   30   55 1

#	End of record

