#	Name: ASD01913481
#	Creating user name:	WinNT
#	Creation time:	15. 06. 2019 20:01

#	Modifying user name:	WinNT
#	Modification time:	15. 06. 2019 20:01

#	Program:	/corina/corina34_cracker 3.40 0067  02.08.2006

@<TRIPOS>MOLECULE
ASD01913481
  34   36    0    0    0
SMALL
NO_CHARGES


@<TRIPOS>ATOM
   1 C1            -0.3714    -0.6897    -2.1156 C.ar    
   2 C2            -0.8270    -0.0289    -0.9793 C.ar    
   3 C3            -0.8128     1.3622    -0.9754 C.ar    
   4 N4            -0.3698     2.0026    -2.0447 N.ar    
   5 C5             0.0538     1.3405    -3.1026 C.ar    
   6 N6             0.0561     0.0233    -3.1447 N.ar    
   7 C7            -1.2508    -2.0818     0.0375 C.ar    
   8 C8            -0.0544    -2.7710     0.1773 C.ar    
   9 N9            -0.0227    -4.0879     0.1238 N.ar    
  10 C10           -1.1140    -4.8029    -0.0625 C.ar    
  11 C11           -2.3508    -4.1873    -0.2108 C.ar    
  12 C12           -2.4255    -2.7987    -0.1607 C.ar    
  13 N13           -3.5046    -4.9528    -0.4087 N.am    
  14 C14           -4.6752    -4.5591     0.1309 C.2     
  15 O15           -1.2747    -0.7245     0.0990 O.3     
  16 C16           -5.8684    -5.4246     0.0200 C.ar    
  17 C17           -7.0821    -5.0198     0.5777 C.ar    
  18 C18           -8.1923    -5.8322     0.4709 C.ar    
  19 C19           -8.1048    -7.0457    -0.1870 C.ar    
  20 C20           -5.7874    -6.6478    -0.6479 C.ar    
  21 O21           -4.7499    -3.4922     0.7087 O.2     
  22 C22           -6.9039    -7.4538    -0.7427 C.ar    
  23 Br23          -6.7953    -9.1148    -1.6400 Br      
  24 H24           -0.3625    -1.7689    -2.1553 H       
  25 H25           -1.1588     1.9112    -0.1121 H       
  26 H26            0.4089     1.8932    -3.9597 H       
  27 H27            0.8625    -2.2215     0.3316 H       
  28 H28           -1.0461    -5.8801    -0.1006 H       
  29 H29           -3.3720    -2.2907    -0.2727 H       
  30 H30           -3.4623    -5.7670    -0.9342 H       
  31 H31           -7.1521    -4.0728     1.0920 H       
  32 H32           -9.1318    -5.5199     0.9024 H       
  33 H33           -8.9767    -7.6779    -0.2674 H       
  34 H34           -4.8522    -6.9648    -1.0854 H       
@<TRIPOS>BOND
   1    1    2 ar
   2    1    6 ar
   3    1   24 1
   4    2    3 ar
   5    2   15 1
   6    3    4 ar
   7    3   25 1
   8    4    5 ar
   9    5    6 ar
  10    5   26 1
  11    7    8 ar
  12    7   12 ar
  13    7   15 1
  14    8    9 ar
  15    8   27 1
  16    9   10 ar
  17   10   11 ar
  18   10   28 1
  19   11   12 ar
  20   11   13 1
  21   12   29 1
  22   13   14 am
  23   13   30 1
  24   14   16 1
  25   14   21 2
  26   16   17 ar
  27   16   20 ar
  28   17   18 ar
  29   17   31 1
  30   18   19 ar
  31   18   32 1
  32   19   22 ar
  33   19   33 1
  34   20   22 ar
  35   20   34 1
  36   22   23 1

#	End of record

