#	Name: ASD02030761
#	Creating user name:	WinNT
#	Creation time:	15. 06. 2019 20:16

#	Modifying user name:	WinNT
#	Modification time:	15. 06. 2019 20:16

#	Program:	/corina/corina34_cracker 3.40 0067  02.08.2006

@<TRIPOS>MOLECULE
ASD02030761
  71   75    0    0    0
SMALL
NO_CHARGES


@<TRIPOS>ATOM
   1 C1            -1.4617     0.8379    -0.3578 C.ar    
   2 C2            -1.2697    -0.5371    -0.4716 C.ar    
   3 C3            -0.0192    -1.0746    -0.4436 C.ar    
   4 C4             1.0965    -0.2329    -0.2969 C.ar    
   5 C5             0.9000     1.1655    -0.1826 C.ar    
   6 C6            -0.4035     1.6835    -0.2157 C.ar    
   7 C7             2.4007    -0.7462    -0.2591 C.ar    
   8 C8             3.4766     0.0880    -0.1128 C.ar    
   9 C9             3.2964     1.4603    -0.0062 C.ar    
  10 C10            2.0224     2.0041    -0.0377 C.ar    
  11 C11            4.8414    -0.5516    -0.0657 C.3     
  12 C12            5.9302     0.4831    -0.3394 C.3     
  13 C13            5.7082     1.6785     0.5944 C.3     
  14 C14            4.4518     2.4177     0.1395 C.3     
  15 N15            1.8514     3.3822     0.0735 N.3     
  16 C16            1.8419     4.0200    -1.2498 C.3     
  17 C17            1.5436     5.5126    -1.0945 C.3     
  18 C18            1.5337     6.1769    -2.4727 C.3     
  19 C19            1.2353     7.6694    -2.3173 C.3     
  20 C20            1.2255     8.3337    -3.6956 C.3     
  21 N21            0.9398     9.7629    -3.5468 N.pl3   
  22 C22            0.8794    10.5756    -4.6637 C.2     
  23 C23            0.6186    11.8801    -4.5279 C.2     
  24 C24            1.1074     9.9914    -6.0340 C.3     
  25 C25            0.3996    12.7165    -5.7225 C.2     
  26 N26            0.2805    14.0300    -5.6291 N.2     
  27 C27            0.0880    14.6883    -6.7502 C.2     
  28 S28            0.0663    13.4870    -7.9843 S.3     
  29 N29            0.3208    12.1870    -6.9202 N.2     
  30 N30           -0.0647    16.0547    -6.9059 N.pl3   
  31 C31           -0.4050    16.5824    -8.1554 C.ar    
  32 C32           -1.3026    15.9090    -8.9740 C.ar    
  33 C33           -1.6373    16.4327   -10.2073 C.ar    
  34 C34           -1.0788    17.6269   -10.6280 C.ar    
  35 C35           -0.1842    18.2999    -9.8144 C.ar    
  36 C36            0.1496    17.7838    -8.5777 C.ar    
  37 Cl37          -1.5009    18.2817   -12.1793 Cl      
  38 H38           -2.4638     1.2396    -0.3871 H       
  39 H39           -2.1255    -1.1864    -0.5833 H       
  40 H40            0.1147    -2.1425    -0.5335 H       
  41 H41           -0.5670     2.7476    -0.1289 H       
  42 H42            2.5584    -1.8111    -0.3460 H       
  43 H43            5.0000    -0.9877     0.9206 H       
  44 H44            4.8958    -1.3381    -0.8184 H       
  45 H45            6.9096     0.0447    -0.1478 H       
  46 H46            5.8714     0.8120    -1.3769 H       
  47 H47            5.5766     1.3258     1.6173 H       
  48 H48            6.5667     2.3482     0.5440 H       
  49 H49            4.6446     2.8971    -0.8202 H       
  50 H50            4.1965     3.1794     0.8762 H       
  51 H51            1.0110     3.6021     0.5868 H       
  52 H52            2.8158     3.8914    -1.7221 H       
  53 H53            1.0736     3.5585    -1.8701 H       
  54 H54            0.5696     5.6412    -0.6222 H       
  55 H55            2.3119     5.9741    -0.4742 H       
  56 H56            2.5076     6.0483    -2.9450 H       
  57 H57            0.7653     5.7154    -3.0930 H       
  58 H58            0.2614     7.7980    -1.8451 H       
  59 H59            2.0037     8.1309    -1.6971 H       
  60 H60            2.1994     8.2051    -4.1679 H       
  61 H61            0.4571     7.8722    -4.3159 H       
  62 H62            0.7930    10.1389    -2.6648 H       
  63 H63            0.5683    12.3212    -3.5433 H       
  64 H64            0.1475     9.7476    -6.4893 H       
  65 H65            1.6306    10.7176    -6.6561 H       
  66 H66            1.7089     9.0866    -5.9477 H       
  67 H67            0.0644    16.6466    -6.1483 H       
  68 H68           -1.7382    14.9766    -8.6465 H       
  69 H69           -2.3352    15.9095   -10.8442 H       
  70 H70            0.2504    19.2316   -10.1454 H       
  71 H71            0.8479    18.3094    -7.9433 H       
@<TRIPOS>BOND
   1    1    2 ar
   2    1    6 ar
   3    1   38 1
   4    2    3 ar
   5    2   39 1
   6    3    4 ar
   7    3   40 1
   8    4    5 ar
   9    4    7 ar
  10    5    6 ar
  11    5   10 ar
  12    6   41 1
  13    7    8 ar
  14    7   42 1
  15    8    9 ar
  16    8   11 1
  17    9   10 ar
  18    9   14 1
  19   10   15 1
  20   11   12 1
  21   11   43 1
  22   11   44 1
  23   12   13 1
  24   12   45 1
  25   12   46 1
  26   13   14 1
  27   13   47 1
  28   13   48 1
  29   14   49 1
  30   14   50 1
  31   15   16 1
  32   15   51 1
  33   16   17 1
  34   16   52 1
  35   16   53 1
  36   17   18 1
  37   17   54 1
  38   17   55 1
  39   18   19 1
  40   18   56 1
  41   18   57 1
  42   19   20 1
  43   19   58 1
  44   19   59 1
  45   20   21 1
  46   20   60 1
  47   20   61 1
  48   21   22 1
  49   21   62 1
  50   22   23 2
  51   22   24 1
  52   23   25 1
  53   23   63 1
  54   24   64 1
  55   24   65 1
  56   24   66 1
  57   25   26 1
  58   25   29 2
  59   26   27 2
  60   27   30 1
  61   27   28 1
  62   28   29 1
  63   30   31 1
  64   30   67 1
  65   31   32 ar
  66   31   36 ar
  67   32   33 ar
  68   32   68 1
  69   33   34 ar
  70   33   69 1
  71   34   35 ar
  72   34   37 1
  73   35   36 ar
  74   35   70 1
  75   36   71 1

#	End of record

