#	Name: ASD04590726
#	Creating user name:	WinNT
#	Creation time:	15. 06. 2019 20:51

#	Modifying user name:	WinNT
#	Modification time:	15. 06. 2019 20:51

#	Program:	/corina/corina34_cracker 3.40 0067  02.08.2006

@<TRIPOS>MOLECULE
ASD04590726
  47   50    0    0    0
SMALL
NO_CHARGES


@<TRIPOS>ATOM
   1 N1            -0.0159     1.3228     0.0093 N.ar    
   2 C2             0.0021    -0.0041     0.0020 C.ar    
   3 N3             1.1298    -0.6959    -0.0125 N.ar    
   4 C4             2.3054    -0.0740    -0.0204 C.ar    
   5 C5             2.3200     1.3353    -0.0129 C.ar    
   6 C6             1.1087     2.0194     0.0023 C.ar    
   7 N7             3.6029    -0.5202    -0.0351 N.pl3   
   8 C8             4.4819     0.5506    -0.0378 C.ar    
   9 C9             3.7325     1.7370    -0.0243 C.ar    
  10 C10            5.8741     0.6460    -0.0506 C.ar    
  11 N11            6.4614     1.8294    -0.0498 N.ar    
  12 C12            5.7754     2.9601    -0.0372 C.ar    
  13 C13            4.4085     2.9593    -0.0242 C.ar    
  14 C14            4.0023    -1.9297    -0.0461 C.3     
  15 N15           -1.2006    -0.6881     0.0103 N.pl3   
  16 C16            3.4590    -2.6234     1.2047 C.3     
  17 C17            3.8761    -4.0954     1.1933 C.3     
  18 C18            3.3096    -4.7763    -0.0543 C.3     
  19 C19            3.8529    -4.0826    -1.3050 C.3     
  20 C20            3.4359    -2.6106    -1.2936 C.3     
  21 C21            3.7267    -6.2484    -0.0657 C.3     
  22 C22            1.7828    -4.6790    -0.0396 C.3     
  23 O23            6.6283    -0.4824    -0.0634 O.3     
  24 C24            8.0473    -0.3141    -0.0761 C.3     
  25 H25            1.0868     3.0991     0.0080 H       
  26 H26            6.3049     3.9014    -0.0372 H       
  27 H27            3.8597     3.8895    -0.0143 H       
  28 H28            5.0900    -1.9991    -0.0565 H       
  29 H29           -2.0374    -0.1976     0.0212 H       
  30 H30           -1.2070    -1.6580     0.0052 H       
  31 H31            3.8625    -2.1383     2.0935 H       
  32 H32            2.3712    -2.5541     1.2151 H       
  33 H33            4.9638    -4.1648     1.1829 H       
  34 H34            3.4890    -4.5897     2.0844 H       
  35 H35            4.9407    -4.1520    -1.3155 H       
  36 H36            3.4494    -4.5677    -2.1938 H       
  37 H37            2.3481    -2.5412    -1.2832 H       
  38 H38            3.8229    -2.1164    -2.1847 H       
  39 H39            3.3396    -6.7426     0.8254 H       
  40 H40            3.3231    -6.7335    -0.9545 H       
  41 H41            4.8144    -6.3177    -0.0761 H       
  42 H42            1.4857    -3.6303    -0.0315 H       
  43 H43            1.3792    -5.1641    -0.9284 H       
  44 H44            1.3957    -5.1732     0.8515 H       
  45 H45            8.3391     0.2433    -0.9661 H       
  46 H46            8.3561     0.2345     0.8137 H       
  47 H47            8.5290    -1.2919    -0.0855 H       
@<TRIPOS>BOND
   1    1    2 ar
   2    1    6 ar
   3    2    3 ar
   4    2   15 1
   5    3    4 ar
   6    4    5 ar
   7    4    7 1
   8    5    6 ar
   9    5    9 1
  10    6   25 1
  11    7    8 1
  12    7   14 1
  13    8    9 ar
  14    8   10 ar
  15    9   13 ar
  16   10   11 ar
  17   10   23 1
  18   11   12 ar
  19   12   13 ar
  20   12   26 1
  21   13   27 1
  22   14   16 1
  23   14   20 1
  24   14   28 1
  25   15   29 1
  26   15   30 1
  27   16   17 1
  28   16   31 1
  29   16   32 1
  30   17   18 1
  31   17   33 1
  32   17   34 1
  33   18   19 1
  34   18   21 1
  35   18   22 1
  36   19   20 1
  37   19   35 1
  38   19   36 1
  39   20   37 1
  40   20   38 1
  41   21   39 1
  42   21   40 1
  43   21   41 1
  44   22   42 1
  45   22   43 1
  46   22   44 1
  47   23   24 1
  48   24   45 1
  49   24   46 1
  50   24   47 1

#	End of record

