#	Name: ASD01912950
#	Creating user name:	WinNT
#	Creation time:	15. 06. 2019 20:00

#	Modifying user name:	WinNT
#	Modification time:	15. 06. 2019 20:00

#	Program:	/corina/corina34_cracker 3.40 0067  02.08.2006

@<TRIPOS>MOLECULE
ASD01912950
  28   30    0    0    0
SMALL
NO_CHARGES


@<TRIPOS>ATOM
   1 C1            -0.0173     1.4278     0.0099 C.2     
   2 C2             0.0021    -0.0041     0.0020 C.1     
   3 C3             0.0180    -1.1779    -0.0044 C.1     
   4 C4             0.0374    -2.6098    -0.0123 C.ar    
   5 C5            -1.1623    -3.3285    -0.0047 C.ar    
   6 C6             1.2561    -3.2955    -0.0335 C.ar    
   7 C7             1.2679    -4.6737    -0.0414 C.ar    
   8 C8             0.0750    -5.3802    -0.0285 C.ar    
   9 C9            -1.1367    -4.7064    -0.0128 C.ar    
  10 N10            1.0417     2.1987     0.0039 N.2     
  11 C11            0.8594     3.4898     0.0123 C.2     
  12 C12           -0.4743     3.8658     0.0281 C.2     
  13 S13           -1.4699     2.4260     0.0215 S.3     
  14 C14            1.9378     4.5633     0.0044 C.3     
  15 C15            1.3981     5.7954    -0.7180 C.3     
  16 N16            0.0735     6.1866    -0.2542 N.am    
  17 C17           -0.8821     5.2746     0.0424 C.2     
  18 O18           -2.0227     5.6072     0.3070 O.2     
  19 F19            0.0933    -6.7311    -0.0364 F       
  20 H20           -2.1068    -2.8048     0.0078 H       
  21 H21            2.1860    -2.7463    -0.0439 H       
  22 H22            2.2083    -5.2044    -0.0581 H       
  23 H23           -2.0624    -5.2626    -0.0024 H       
  24 H24            2.1995     4.8260     1.0294 H       
  25 H25            2.8200     4.1913    -0.5166 H       
  26 H26            2.0859     6.6258    -0.5586 H       
  27 H27            1.3482     5.5831    -1.7860 H       
  28 H28           -0.1299     7.1298    -0.1543 H       
@<TRIPOS>BOND
   1    1    2 1
   2    1   10 2
   3    1   13 1
   4    2    3 3
   5    3    4 1
   6    4    5 ar
   7    4    6 ar
   8    5    9 ar
   9    5   20 1
  10    6    7 ar
  11    6   21 1
  12    7    8 ar
  13    7   22 1
  14    8    9 ar
  15    8   19 1
  16    9   23 1
  17   10   11 1
  18   11   12 2
  19   11   14 1
  20   12   13 1
  21   12   17 1
  22   14   15 1
  23   14   24 1
  24   14   25 1
  25   15   16 1
  26   15   26 1
  27   15   27 1
  28   16   17 am
  29   16   28 1
  30   17   18 2

#	End of record

