#	Name: ASD01814721
#	Creating user name:	WinNT
#	Creation time:	15. 06. 2019 19:32

#	Modifying user name:	WinNT
#	Modification time:	15. 06. 2019 19:32

#	Program:	/corina/corina34_cracker 3.40 0067  02.08.2006

@<TRIPOS>MOLECULE
ASD01814721
  48   51    0    0    0
SMALL
NO_CHARGES


@<TRIPOS>ATOM
   1 C1             1.1518     2.2492    -0.5128 C.ar    
   2 C2             0.7765     0.9136    -0.4976 C.ar    
   3 C3             1.7199    -0.0814    -0.3459 C.ar    
   4 C4             3.0668     0.2522    -0.2063 C.ar    
   5 C5             3.4422     1.6058    -0.2227 C.ar    
   6 C6             2.4766     2.6006    -0.3765 C.ar    
   7 N7             4.0200    -0.7321    -0.0534 N.pl3   
   8 C8             5.3243    -0.4637     0.0851 C.2     
   9 C9             5.8137     0.8272     0.0845 C.2     
  10 C10            4.8698     1.9453    -0.0741 C.2     
  11 O11            5.2516     3.1024    -0.0815 O.2     
  12 C12            7.2530     1.0807     0.2397 C.2     
  13 O13            8.0236     0.1495     0.3700 O.2     
  14 O14            7.7187     2.3457     0.2376 O.3     
  15 C15            3.5871    -2.1316    -0.0416 C.3     
  16 C16            3.4443    -2.6253    -1.4583 C.ar    
  17 C17            4.5272    -2.5718    -2.3204 C.ar    
  18 C18            4.4003    -3.0232    -3.6211 C.ar    
  19 C19            3.1810    -3.5323    -4.0624 C.ar    
  20 C20            2.0956    -3.5837    -3.1895 C.ar    
  21 C21            2.2340    -3.1354    -1.8917 C.ar    
  22 C22            3.0382    -4.0179    -5.4570 C.ar    
  23 F23            1.3395    -1.3777    -0.3322 F       
  24 C24            4.1258    -3.9710    -6.3275 C.ar    
  25 F25            5.7086    -2.0775    -1.8900 F       
  26 C26            1.8179    -4.5271    -5.8975 C.ar    
  27 C27            1.6883    -4.9782    -7.1943 C.ar    
  28 C28            2.7719    -4.9254    -8.0607 C.ar    
  29 C29            3.9901    -4.4235    -7.6231 C.ar    
  30 O30            2.6412    -5.3705    -9.3377 O.3     
  31 C31            3.7961    -5.2869   -10.1752 C.3     
  32 H32            0.4021     3.0167    -0.6365 H       
  33 H33           -0.2653     0.6501    -0.6054 H       
  34 H34            2.7663     3.6410    -0.3893 H       
  35 H35            6.0166    -1.2844     0.2015 H       
  36 H36            8.6729     2.4625     0.3427 H       
  37 H37            4.3279    -2.7367     0.4811 H       
  38 H38            2.6275    -2.2108     0.4692 H       
  39 H39            5.2443    -2.9809    -4.2935 H       
  40 H40            1.1484    -3.9776    -3.5273 H       
  41 H41            1.3940    -3.1789    -1.2142 H       
  42 H42            5.0736    -3.5804    -5.9877 H       
  43 H43            0.9748    -4.5688    -5.2239 H       
  44 H44            0.7431    -5.3732    -7.5361 H       
  45 H45            4.8312    -4.3833    -8.2994 H       
  46 H46            4.1101    -4.2464   -10.2584 H       
  47 H47            4.6034    -5.8765    -9.7407 H       
  48 H48            3.5556    -5.6741   -11.1653 H       
@<TRIPOS>BOND
   1    1    2 ar
   2    1    6 ar
   3    1   32 1
   4    2    3 ar
   5    2   33 1
   6    3    4 ar
   7    3   23 1
   8    4    5 ar
   9    4    7 1
  10    5    6 ar
  11    5   10 1
  12    6   34 1
  13    7   15 1
  14    7    8 1
  15    8    9 2
  16    8   35 1
  17    9   10 1
  18    9   12 1
  19   10   11 2
  20   12   13 2
  21   12   14 1
  22   14   36 1
  23   15   16 1
  24   15   37 1
  25   15   38 1
  26   16   17 ar
  27   16   21 ar
  28   17   18 ar
  29   17   25 1
  30   18   19 ar
  31   18   39 1
  32   19   20 ar
  33   19   22 1
  34   20   21 ar
  35   20   40 1
  36   21   41 1
  37   22   26 ar
  38   22   24 ar
  39   24   29 ar
  40   24   42 1
  41   26   27 ar
  42   26   43 1
  43   27   28 ar
  44   27   44 1
  45   28   29 ar
  46   28   30 1
  47   29   45 1
  48   30   31 1
  49   31   46 1
  50   31   47 1
  51   31   48 1

#	End of record

