#	Name: ASD07730007
#	Creating user name:	WinNT
#	Creation time:	15. 06. 2019 21:11

#	Modifying user name:	WinNT
#	Modification time:	15. 06. 2019 21:11

#	Program:	/corina/corina34_cracker 3.40 0067  02.08.2006

@<TRIPOS>MOLECULE
ASD07730007
  39   42    0    0    0
SMALL
NO_CHARGES


@<TRIPOS>ATOM
   1 C1             0.0607     1.5636     0.1037 C.ar    
   2 C2             0.0315     0.2381     0.5809 C.ar    
   3 C3            -1.1470    -0.4924     0.5035 C.ar    
   4 C4            -2.2734     0.0890    -0.0394 C.ar    
   5 C5            -2.2410     1.3954    -0.5087 C.ar    
   6 C6            -1.0901     2.1303    -0.4468 C.ar    
   7 C7             1.3219     2.3074     0.1998 C.2     
   8 N8             2.3782     1.7016     0.7307 N.2     
   9 C9             2.3205     0.4547     1.1709 C.2     
  10 N10            1.1864    -0.2949     1.1139 N.pl3   
  11 C11            3.5305    -0.1447     1.7438 C.2     
  12 C12            4.7130     0.5992     1.8328 C.2     
  13 C13            5.8437     0.0314     2.3714 C.2     
  14 C14            5.8267    -1.2797     2.8313 C.2     
  15 C15            4.6790    -2.0330     2.7560 C.2     
  16 C16            3.5113    -1.4778     2.2168 C.2     
  17 O17            2.3953    -2.2020     2.1412 O.2     
  18 N18            1.4082     3.5985    -0.2486 N.pl3   
  19 C19            2.6462     4.2479    -0.2758 C.ar    
  20 C20            2.7089     5.6198    -0.4925 C.ar    
  21 C21            3.8156     3.5250    -0.0807 C.ar    
  22 C22            5.0372     4.1695    -0.1081 C.ar    
  23 C23            5.0970     5.5330    -0.3295 C.ar    
  24 C24            3.9343     6.2578    -0.5187 C.ar    
  25 Cl25           1.2498     6.5298    -0.7305 Cl      
  26 H26           -1.1811    -1.5093     0.8658 H       
  27 H27           -3.1905    -0.4780    -0.1007 H       
  28 H28           -3.1332     1.8340    -0.9307 H       
  29 H29           -1.0735     3.1460    -0.8137 H       
  30 H30            1.1900    -1.2051     1.4490 H       
  31 H31            4.7374     1.6190     1.4780 H       
  32 H32            6.7534     0.6097     2.4373 H       
  33 H33            6.7233    -1.7111     3.2513 H       
  34 H34            4.6765    -3.0511     3.1164 H       
  35 H35            0.6105     4.0625    -0.5475 H       
  36 H36            3.7701     2.4600     0.0927 H       
  37 H37            5.9469     3.6076     0.0440 H       
  38 H38            6.0535     6.0340    -0.3504 H       
  39 H39            3.9845     7.3227    -0.6917 H       
@<TRIPOS>BOND
   1    1    2 ar
   2    1    7 1
   3    1    6 ar
   4    2    3 ar
   5    2   10 1
   6    3    4 ar
   7    3   26 1
   8    4    5 ar
   9    4   27 1
  10    5    6 ar
  11    5   28 1
  12    6   29 1
  13    7    8 2
  14    7   18 1
  15    8    9 1
  16    9   10 1
  17    9   11 2
  18   10   30 1
  19   11   12 1
  20   11   16 1
  21   12   13 2
  22   12   31 1
  23   13   14 1
  24   13   32 1
  25   14   15 2
  26   14   33 1
  27   15   16 1
  28   15   34 1
  29   16   17 2
  30   18   19 1
  31   18   35 1
  32   19   20 ar
  33   19   21 ar
  34   20   25 1
  35   20   24 ar
  36   21   22 ar
  37   21   36 1
  38   22   23 ar
  39   22   37 1
  40   23   24 ar
  41   23   38 1
  42   24   39 1

#	End of record

