#	Name: ASD00450036
#	Creating user name:	WinNT
#	Creation time:	15. 06. 2019 18:36

#	Modifying user name:	WinNT
#	Modification time:	15. 06. 2019 18:36

#	Program:	/corina/corina34_cracker 3.40 0067  02.08.2006

@<TRIPOS>MOLECULE
ASD00450036
  42   45    0    0    0
SMALL
NO_CHARGES


@<TRIPOS>ATOM
   1 C1            -0.1958     1.4566     0.2915 C.ar    
   2 C2            -0.3553     0.0621     0.3185 C.ar    
   3 C3             0.7504    -0.7535     0.4844 C.ar    
   4 C4             2.0131    -0.1987     0.6242 C.ar    
   5 C5             2.1829     1.1747     0.5992 C.ar    
   6 C6             1.0880     2.0102     0.4335 C.ar    
   7 C7            -1.3632     2.3317     0.1097 C.2     
   8 O8            -1.9819     2.7295     1.0787 O.2     
   9 N9            -1.7478     2.6932    -1.1304 N.am    
  10 N10            1.2599     3.3885     0.4081 N.pl3   
  11 C11            2.3374     3.9716     1.0836 C.ar    
  12 C12            2.7554     5.2565     0.7518 C.ar    
  13 C13            2.9883     3.2717     2.0902 C.ar    
  14 C14            4.0522     3.8500     2.7557 C.ar    
  15 C15            4.4698     5.1251     2.4206 C.ar    
  16 C16            3.8205     5.8290     1.4217 C.ar    
  17 F17            3.0854    -1.0043     0.7865 F       
  18 F18            2.1216     5.9434    -0.2237 F       
  19 I19            6.0835     5.9963     3.4334 I       
  20 O20           -1.5894    -0.4842     0.1829 O.3     
  21 C21           -1.7117    -1.8292     0.3329 C.ar    
  22 C22           -1.6993    -2.3864     1.6111 C.ar    
  23 C23           -1.8212    -3.7338     1.7817 C.ar    
  24 C24           -1.9600    -4.5675     0.6663 C.ar    
  25 C25           -1.8528    -2.6328    -0.7818 C.ar    
  26 C26           -2.1088    -6.0092     0.4931 C.2     
  27 N27           -2.1984    -6.2497    -0.7836 N.2     
  28 N28           -2.1198    -5.0538    -1.5047 N.pl3   
  29 C29           -1.9731    -4.0108    -0.6275 C.ar    
  30 H30            0.6290    -1.8264     0.5054 H       
  31 H31            3.1708     1.5972     0.7090 H       
  32 H32           -1.2545     2.3760    -1.9030 H       
  33 H33           -2.5180     3.2705    -1.2503 H       
  34 H34            0.6329     3.9466    -0.0780 H       
  35 H35            2.6631     2.2760     2.3533 H       
  36 H36            4.5583     3.3055     3.5392 H       
  37 H37            4.1461     6.8263     1.1653 H       
  38 H38           -1.5920    -1.7452     2.4735 H       
  39 H39           -1.8103    -4.1567     2.7754 H       
  40 H40           -1.8660    -2.1942    -1.7686 H       
  41 H41           -2.1386    -6.7453     1.2829 H       
  42 H42           -2.1621    -4.9752    -2.4706 H       
@<TRIPOS>BOND
   1    1    2 ar
   2    1    6 ar
   3    1    7 1
   4    2    3 ar
   5    2   20 1
   6    3    4 ar
   7    3   30 1
   8    4    5 ar
   9    4   17 1
  10    5    6 ar
  11    5   31 1
  12    6   10 1
  13    7    8 2
  14    7    9 am
  15    9   32 1
  16    9   33 1
  17   10   11 1
  18   10   34 1
  19   11   13 ar
  20   11   12 ar
  21   12   16 ar
  22   12   18 1
  23   13   14 ar
  24   13   35 1
  25   14   15 ar
  26   14   36 1
  27   15   16 ar
  28   15   19 1
  29   16   37 1
  30   20   21 1
  31   21   22 ar
  32   21   25 ar
  33   22   23 ar
  34   22   38 1
  35   23   24 ar
  36   23   39 1
  37   24   26 1
  38   24   29 ar
  39   25   29 ar
  40   25   40 1
  41   26   27 2
  42   26   41 1
  43   27   28 1
  44   28   29 1
  45   28   42 1

#	End of record

