#	Name: ASD01840308
#	Creating user name:	WinNT
#	Creation time:	15. 06. 2019 19:37

#	Modifying user name:	WinNT
#	Modification time:	15. 06. 2019 19:37

#	Program:	/corina/corina34_cracker 3.40 0067  02.08.2006

@<TRIPOS>MOLECULE
ASD01840308
  53   57    0    0    0
SMALL
NO_CHARGES


@<TRIPOS>ATOM
   1 C1             2.5818    -0.3976     1.0115 C.3     
   2 C2             1.3065    -1.0538     0.5488 C.ar    
   3 C3             1.2567    -1.6866    -0.6641 C.ar    
   4 C4             0.0502    -2.2846    -1.0559 C.ar    
   5 C5            -0.3456    -3.0283    -2.2620 C.2     
   6 O6             0.3862    -3.2649    -3.2038 O.2     
   7 N7            -1.6319    -3.4089    -2.1741 N.am    
   8 C8            -2.1758    -2.9389    -0.8950 C.3     
   9 C9            -1.0502    -2.2129    -0.1987 C.ar    
  10 N10           -0.9613    -1.5961     0.9582 N.ar    
  11 C11            0.1696    -1.0264     1.3550 C.ar    
  12 N12            0.2196    -0.3919     2.5846 N.3     
  13 C13           -0.7162     0.7388     2.6318 C.3     
  14 C14           -0.5304     1.5020     3.9452 C.3     
  15 C15           -0.7854     0.5547     5.1208 C.3     
  16 C16            0.1692    -0.6383     5.0212 C.3     
  17 C17           -0.0369    -1.3395     3.6766 C.3     
  18 O18           -0.5579     1.2471     6.3500 O.3     
  19 C19           -1.2068     0.7815     7.4496 C.ar    
  20 C20           -1.9541    -0.3846     7.3744 C.ar    
  21 C21           -2.6115    -0.8536     8.4941 C.ar    
  22 C22           -2.5285    -0.1646     9.6927 C.ar    
  23 C23           -3.1469    -0.4664    11.0411 C.3     
  24 C24           -3.0626     0.8576    11.8297 C.3     
  25 O25           -2.8177     0.6087    13.2154 O.3     
  26 C26           -1.8519     1.5566    11.1756 C.3     
  27 C27           -1.7840     0.9984     9.7701 C.ar    
  28 C28           -1.1190     1.4676     8.6511 C.ar    
  29 H29            3.1494    -1.0982     1.6240 H       
  30 H30            3.1764    -0.1080     0.1451 H       
  31 H31            2.3420     0.4879     1.6001 H       
  32 H32            2.1257    -1.7240    -1.3042 H       
  33 H33           -2.1199    -3.9111    -2.8454 H       
  34 H34           -3.0091    -2.2583    -1.0698 H       
  35 H35           -2.5037    -3.7865    -0.2933 H       
  36 H36           -0.5213     1.4068     1.7928 H       
  37 H37           -1.7388     0.3667     2.5696 H       
  38 H38            0.4881     1.8863     4.0018 H       
  39 H39           -1.2358     2.3319     3.9868 H       
  40 H40           -1.8158     0.2007     5.0864 H       
  41 H41            1.1987    -0.2877     5.0948 H       
  42 H42           -0.0365    -1.3376     5.8316 H       
  43 H43           -1.0627    -1.7019     3.6095 H       
  44 H44            0.6513    -2.1809     3.5966 H       
  45 H45           -2.0220    -0.9245     6.4415 H       
  46 H46           -3.1933    -1.7616     8.4351 H       
  47 H47           -4.1870    -0.7694    10.9209 H       
  48 H48           -2.5813    -1.2466    11.5504 H       
  49 H49           -3.9709     1.4456    11.6980 H       
  50 H50           -3.5120     0.0961    13.6517 H       
  51 H51           -2.0077     2.6350    11.1471 H       
  52 H52           -0.9384     1.3199    11.7211 H       
  53 H53           -0.5339     2.3733     8.7126 H       
@<TRIPOS>BOND
   1    1    2 1
   2    1   29 1
   3    1   30 1
   4    1   31 1
   5    2   11 ar
   6    2    3 ar
   7    3    4 ar
   8    3   32 1
   9    4    9 ar
  10    4    5 1
  11    5    6 2
  12    5    7 am
  13    7    8 1
  14    7   33 1
  15    8    9 1
  16    8   34 1
  17    8   35 1
  18    9   10 ar
  19   10   11 ar
  20   11   12 1
  21   12   17 1
  22   12   13 1
  23   13   14 1
  24   13   36 1
  25   13   37 1
  26   14   15 1
  27   14   38 1
  28   14   39 1
  29   15   16 1
  30   15   18 1
  31   15   40 1
  32   16   17 1
  33   16   41 1
  34   16   42 1
  35   17   43 1
  36   17   44 1
  37   18   19 1
  38   19   28 ar
  39   19   20 ar
  40   20   21 ar
  41   20   45 1
  42   21   22 ar
  43   21   46 1
  44   22   27 ar
  45   22   23 1
  46   23   24 1
  47   23   47 1
  48   23   48 1
  49   24   25 1
  50   24   26 1
  51   24   49 1
  52   25   50 1
  53   26   27 1
  54   26   51 1
  55   26   52 1
  56   27   28 ar
  57   28   53 1

#	End of record

