#	Name: ASD01882178
#	Creating user name:	WinNT
#	Creation time:	15. 06. 2019 19:44

#	Modifying user name:	WinNT
#	Modification time:	15. 06. 2019 19:44

#	Program:	/corina/corina34_cracker 3.40 0067  02.08.2006

@<TRIPOS>MOLECULE
ASD01882178
  57   59    0    0    0
SMALL
NO_CHARGES


@<TRIPOS>ATOM
   1 C1             3.6689     3.7982     1.1236 C.2     
   2 N2             3.7233     2.5787     1.6418 N.2     
   3 C3             4.8545     1.8659     1.6300 C.2     
   4 C4             6.0254     2.4191     1.0527 C.2     
   5 C5             5.9576     3.6609     0.5288 C.2     
   6 N6             4.7754     4.3457     0.5674 N.pl3   
   7 O7             2.5974     4.6190     1.0649 O.3     
   8 C8             4.4505     5.6935     0.0706 C.3     
   9 C9             2.9616     5.8675     0.4169 C.3     
  10 O10            4.8791     0.7447     2.1140 O.2     
  11 C11            2.1395     6.0687    -0.8577 C.3     
  12 O12            0.7651     6.2554    -0.5136 O.3     
  13 C13           -0.1066     6.4490    -1.5380 C.ar    
  14 C14           -1.4560     6.6368    -1.2760 C.ar    
  15 C15           -2.3401     6.8334    -2.3191 C.ar    
  16 C16           -1.8812     6.8431    -3.6233 C.ar    
  17 C17           -0.5369     6.6557    -3.8871 C.ar    
  18 C18            0.3522     6.4648    -2.8471 C.ar    
  19 C19           -2.8479     7.0577    -4.7593 C.3     
  20 C20           -2.0895     7.0237    -6.0877 C.3     
  21 C21           -3.0894     6.9791    -7.2449 C.3     
  22 C22           -4.2475     7.9362    -6.9554 C.3     
  23 C23           -2.3908     7.4006    -8.5391 C.3     
  24 C24           -3.6300     5.5559    -7.3972 C.3     
  25 C25           -3.9039     5.9507    -4.7464 C.3     
  26 C26           -3.5317     8.4168    -4.5972 C.3     
  27 C27            7.1776     4.2886    -0.0946 C.3     
  28 F28            8.2537     3.3984    -0.0125 F       
  29 H29            6.9495     1.8603     1.0332 H       
  30 H30            5.0538     6.4446     0.5804 H       
  31 H31            4.5993     5.7497    -1.0077 H       
  32 H32            2.8212     6.7062     1.0988 H       
  33 H33            2.5034     6.9477    -1.3898 H       
  34 H34            2.2382     5.1908    -1.4962 H       
  35 H35           -1.8150     6.6290    -0.2574 H       
  36 H36           -3.3907     6.9793    -2.1157 H       
  37 H37           -0.1810     6.6629    -4.9068 H       
  38 H38            1.4028     6.3233    -3.0534 H       
  39 H39           -1.4711     7.9169    -6.1761 H       
  40 H40           -1.4552     6.1379    -6.1213 H       
  41 H41           -3.8512     8.8982    -6.6304 H       
  42 H42           -4.8397     8.0741    -7.8600 H       
  43 H43           -4.8765     7.5182    -6.1695 H       
  44 H44           -1.5658     6.7187    -8.7454 H       
  45 H45           -3.1032     7.3688    -9.3635 H       
  46 H46           -2.0057     8.4145    -8.4306 H       
  47 H47           -4.6265     5.4969    -6.9595 H       
  48 H48           -3.6820     5.2983    -8.4551 H       
  49 H49           -2.9666     4.8585    -6.8857 H       
  50 H50           -4.0219     5.5729    -3.7308 H       
  51 H51           -4.8548     6.3515    -5.0977 H       
  52 H52           -3.5875     5.1391    -5.4016 H       
  53 H53           -2.8446     9.2075    -4.8985 H       
  54 H54           -4.4232     8.4520    -5.2233 H       
  55 H55           -3.8144     8.5591    -3.5542 H       
  56 H56            6.9742     4.5173    -1.1407 H       
  57 H57            7.4250     5.2076     0.4368 H       
@<TRIPOS>BOND
   1    1    2 2
   2    1    6 1
   3    1    7 1
   4    2    3 1
   5    3    4 1
   6    3   10 2
   7    4    5 2
   8    4   29 1
   9    5    6 1
  10    5   27 1
  11    6    8 1
  12    7    9 1
  13    8    9 1
  14    8   30 1
  15    8   31 1
  16    9   11 1
  17    9   32 1
  18   11   12 1
  19   11   33 1
  20   11   34 1
  21   12   13 1
  22   13   14 ar
  23   13   18 ar
  24   14   15 ar
  25   14   35 1
  26   15   16 ar
  27   15   36 1
  28   16   17 ar
  29   16   19 1
  30   17   18 ar
  31   17   37 1
  32   18   38 1
  33   19   20 1
  34   19   25 1
  35   19   26 1
  36   20   21 1
  37   20   39 1
  38   20   40 1
  39   21   22 1
  40   21   23 1
  41   21   24 1
  42   22   41 1
  43   22   42 1
  44   22   43 1
  45   23   44 1
  46   23   45 1
  47   23   46 1
  48   24   47 1
  49   24   48 1
  50   24   49 1
  51   25   50 1
  52   25   51 1
  53   25   52 1
  54   26   53 1
  55   26   54 1
  56   26   55 1
  57   27   28 1
  58   27   56 1
  59   27   57 1

#	End of record

