#	Name: ASD03092934
#	Creating user name:	WinNT
#	Creation time:	15. 06. 2019 20:33

#	Modifying user name:	WinNT
#	Modification time:	15. 06. 2019 20:33

#	Program:	/corina/corina34_cracker 3.40 0067  02.08.2006

@<TRIPOS>MOLECULE
ASD03092934
  52   54    0    0    0
SMALL
NO_CHARGES


@<TRIPOS>ATOM
   1 C1             1.3626     1.7310     0.3587 C.3     
   2 C2             1.7682     0.2585     0.4477 C.3     
   3 C3             0.7267    -0.5033     1.2262 C.2     
   4 O4            -0.1962     0.0900     1.7480 O.2     
   5 C5             0.8233    -1.9042     1.3490 C.2     
   6 C6             1.5631    -2.5995     2.3058 C.2     
   7 C7             1.3636    -3.9777     2.0451 C.2     
   8 C8             0.5317    -4.0752     0.9678 C.2     
   9 C9             0.0547    -5.3633     0.3480 C.3     
  10 N10            0.1992    -2.8380     0.5491 N.pl3   
  11 C11           -0.6835    -2.5334    -0.5798 C.3     
  12 C12            1.9519    -5.1081     2.8043 C.ar    
  13 C13            3.3313    -5.3067     2.8063 C.ar    
  14 C14            3.8731    -6.3602     3.5143 C.ar    
  15 C15            3.0498    -7.2183     4.2208 C.ar    
  16 C16            3.6474    -8.3668     4.9920 C.3     
  17 C17            1.6800    -7.0260     4.2224 C.ar    
  18 C18            1.1277    -5.9722     3.5229 C.ar    
  19 C19            2.3934    -2.0129     3.3812 C.ar    
  20 C20            3.7765    -2.1973     3.3780 C.ar    
  21 C21            4.5450    -1.6474     4.3832 C.ar    
  22 C22            3.9471    -0.9144     5.3929 C.ar    
  23 C23            2.5761    -0.7283     5.4020 C.ar    
  24 C24            1.7970    -1.2681     4.3995 C.ar    
  25 S25            4.9357    -0.2154     6.6730 S.o2    
  26 N26            5.3847     1.2985     6.1743 N.am    
  27 O27            4.0757    -0.0316     7.7891 O.2     
  28 O28            6.1263    -0.9892     6.7283 O.2     
  29 H29            1.2830     2.1473     1.3629 H       
  30 H30            2.1159     2.2820    -0.2044 H       
  31 H31            0.3998     1.8128    -0.1459 H       
  32 H32            1.8478    -0.1578    -0.5565 H       
  33 H33            2.7309     0.1767     0.9522 H       
  34 H34           -0.8737    -5.6749     0.8266 H       
  35 H35           -0.1190    -5.2115    -0.7174 H       
  36 H36            0.8117    -6.1353     0.4863 H       
  37 H37           -0.0845    -2.3715    -1.4760 H       
  38 H38           -1.3647    -3.3683    -0.7440 H       
  39 H39           -1.2580    -1.6337    -0.3594 H       
  40 H40            3.9750    -4.6377     2.2545 H       
  41 H41            4.9420    -6.5150     3.5165 H       
  42 H42            3.8766    -8.0427     6.0072 H       
  43 H43            2.9354    -9.1914     5.0259 H       
  44 H44            4.5627    -8.6971     4.5008 H       
  45 H45            1.0418    -7.6993     4.7754 H       
  46 H46            0.0584    -5.8203     3.5285 H       
  47 H47            4.2444    -2.7696     2.5906 H       
  48 H48            5.6156    -1.7897     4.3821 H       
  49 H49            2.1153    -0.1557     6.1933 H       
  50 H50            0.7275    -1.1184     4.4052 H       
  51 H51            5.5379     1.9989     6.8277 H       
  52 H52            5.4946     1.4850     5.2287 H       
@<TRIPOS>BOND
   1    1    2 1
   2    1   29 1
   3    1   30 1
   4    1   31 1
   5    2    3 1
   6    2   32 1
   7    2   33 1
   8    3    4 2
   9    3    5 1
  10    5   10 1
  11    5    6 2
  12    6    7 1
  13    6   19 1
  14    7    8 2
  15    7   12 1
  16    8    9 1
  17    8   10 1
  18    9   34 1
  19    9   35 1
  20    9   36 1
  21   10   11 1
  22   11   37 1
  23   11   38 1
  24   11   39 1
  25   12   18 ar
  26   12   13 ar
  27   13   14 ar
  28   13   40 1
  29   14   15 ar
  30   14   41 1
  31   15   16 1
  32   15   17 ar
  33   16   42 1
  34   16   43 1
  35   16   44 1
  36   17   18 ar
  37   17   45 1
  38   18   46 1
  39   19   24 ar
  40   19   20 ar
  41   20   21 ar
  42   20   47 1
  43   21   22 ar
  44   21   48 1
  45   22   23 ar
  46   22   25 1
  47   23   24 ar
  48   23   49 1
  49   24   50 1
  50   25   26 am
  51   25   27 2
  52   25   28 2
  53   26   51 1
  54   26   52 1

#	End of record

