#	Name: ASD01510039
#	Creating user name:	WinNT
#	Creation time:	15. 06. 2019 19:21

#	Modifying user name:	WinNT
#	Modification time:	15. 06. 2019 19:21

#	Program:	/corina/corina34_cracker 3.40 0067  02.08.2006

@<TRIPOS>MOLECULE
ASD01510039
  62   64    0    0    0
SMALL
NO_CHARGES


@<TRIPOS>ATOM
   1 C1             0.2815     1.9735    -0.5565 C.3     
   2 C2             0.4071     0.4501    -0.4912 C.3     
   3 O3             0.9630    -0.0349    -1.7150 O.3     
   4 C4             1.1416    -1.3752    -1.8217 C.ar    
   5 N5             0.8071    -2.1813    -0.8197 N.ar    
   6 C6             0.9783    -3.4909    -0.9158 C.ar    
   7 N7             1.4857    -4.0507    -2.0033 N.ar    
   8 C8             1.8440    -3.3102    -3.0469 C.ar    
   9 C9             1.6736    -1.9271    -2.9870 C.ar    
  10 S10            2.1324    -0.9013    -4.3441 S.3     
  11 C11            0.6182    -0.8907    -5.2452 C.ar    
  12 N12            0.5449    -0.2038    -6.3762 N.ar    
  13 C13           -0.5813    -0.1736    -7.0825 C.ar    
  14 N14           -0.6498     0.5495    -8.2689 N.am    
  15 C15            0.3938     1.3092    -8.6562 C.2     
  16 O16            1.3543     1.4373    -7.9270 O.2     
  17 C17            0.3673     1.9997    -9.9955 C.3     
  18 C18           -1.6904    -0.8752    -6.6196 C.ar    
  19 C19           -1.5758    -1.5851    -5.4281 C.ar    
  20 N20           -0.4163    -1.5742    -4.7772 N.ar    
  21 N21           -2.6583    -2.3009    -4.9274 N.am    
  22 C22           -2.5092    -3.0673    -3.8288 C.2     
  23 O23           -1.4585    -3.0616    -3.2235 O.2     
  24 C24           -3.6484    -3.9314    -3.3527 C.3     
  25 O25            2.3629    -3.8917    -4.1569 O.3     
  26 C26            2.4993    -5.3141    -4.1408 C.3     
  27 C27            3.0972    -5.7842    -5.4683 C.3     
  28 N28            0.6168    -4.2980     0.1518 N.3     
  29 C29            0.8812    -5.7118    -0.1442 C.3     
  30 C30            0.6083    -6.5553     1.1032 C.3     
  31 C31           -0.8500    -6.3682     1.5309 C.3     
  32 C32           -1.1120    -4.8813     1.7863 C.3     
  33 C33           -0.7892    -4.0864     0.5190 C.3     
  34 H34            1.2674     2.4133    -0.7072 H       
  35 H35           -0.3700     2.2491    -1.3858 H       
  36 H36           -0.1425     2.3434     0.3770 H       
  37 H37            1.0586     0.1745     0.3382 H       
  38 H38           -0.5788     0.0103    -0.3404 H       
  39 H39           -1.4487     0.5069    -8.8174 H       
  40 H40           -0.5685     1.7690   -10.5046 H       
  41 H41            0.4460     3.0771    -9.8504 H       
  42 H42            1.2050     1.6522   -10.6000 H       
  43 H43           -2.6185    -0.8687    -7.1719 H       
  44 H44           -3.5204    -2.2484    -5.3689 H       
  45 H45           -4.5028    -3.8051    -4.0177 H       
  46 H46           -3.3376    -4.9761    -3.3549 H       
  47 H47           -3.9289    -3.6379    -2.3411 H       
  48 H48            3.1569    -5.6067    -3.3222 H       
  49 H49            1.5198    -5.7714    -4.0012 H       
  50 H50            2.4396    -5.4915    -6.2869 H       
  51 H51            4.0767    -5.3268    -5.6079 H       
  52 H52            3.2012    -6.8691    -5.4560 H       
  53 H53            0.2309    -6.0411    -0.9546 H       
  54 H54            1.9226    -5.8317    -0.4430 H       
  55 H55            0.7897    -7.6064     0.8787 H       
  56 H56            1.2680    -6.2358     1.9100 H       
  57 H57           -1.5101    -6.7237     0.7397 H       
  58 H58           -1.0372    -6.9331     2.4440 H       
  59 H59           -2.1597    -4.7365     2.0497 H       
  60 H60           -0.4794    -4.5355     2.6038 H       
  61 H61           -0.9611    -3.0257     0.7020 H       
  62 H62           -1.4317    -4.4233    -0.2945 H       
@<TRIPOS>BOND
   1    1    2 1
   2    1   34 1
   3    1   35 1
   4    1   36 1
   5    2    3 1
   6    2   37 1
   7    2   38 1
   8    3    4 1
   9    4    5 ar
  10    4    9 ar
  11    5    6 ar
  12    6    7 ar
  13    6   28 1
  14    7    8 ar
  15    8    9 ar
  16    8   25 1
  17    9   10 1
  18   10   11 1
  19   11   12 ar
  20   11   20 ar
  21   12   13 ar
  22   13   14 1
  23   13   18 ar
  24   14   15 am
  25   14   39 1
  26   15   16 2
  27   15   17 1
  28   17   40 1
  29   17   41 1
  30   17   42 1
  31   18   19 ar
  32   18   43 1
  33   19   20 ar
  34   19   21 1
  35   21   22 am
  36   21   44 1
  37   22   23 2
  38   22   24 1
  39   24   45 1
  40   24   46 1
  41   24   47 1
  42   25   26 1
  43   26   27 1
  44   26   48 1
  45   26   49 1
  46   27   50 1
  47   27   51 1
  48   27   52 1
  49   28   29 1
  50   28   33 1
  51   29   30 1
  52   29   53 1
  53   29   54 1
  54   30   31 1
  55   30   55 1
  56   30   56 1
  57   31   32 1
  58   31   57 1
  59   31   58 1
  60   32   33 1
  61   32   59 1
  62   32   60 1
  63   33   61 1
  64   33   62 1

#	End of record

