#	Name: ASD01940441
#	Creating user name:	WinNT
#	Creation time:	15. 06. 2019 20:12

#	Modifying user name:	WinNT
#	Modification time:	15. 06. 2019 20:12

#	Program:	/corina/corina34_cracker 3.40 0067  02.08.2006

@<TRIPOS>MOLECULE
ASD01940441
  52   54    0    0    0
SMALL
NO_CHARGES


@<TRIPOS>ATOM
   1 C1             0.5248     1.5106     0.0887 C.ar    
   2 C2             0.3514     0.1573     0.1780 C.ar    
   3 C3             1.4015    -0.7084    -0.1137 C.ar    
   4 C4             2.6383    -0.2108    -0.4984 C.ar    
   5 C5             2.8267     1.1561    -0.5926 C.ar    
   6 C6             1.7618     2.0244    -0.2971 C.ar    
   7 C7             1.9948     3.4754    -0.4064 C.2     
   8 O8             4.0180     1.6799    -0.9649 O.3     
   9 C9             4.1963     3.0059    -1.0554 C.2     
  10 N10            3.2236     3.8919    -0.7866 N.am    
  11 O11            1.1097     4.2728    -0.1629 O.2     
  12 O12            5.2858     3.4240    -1.3938 O.2     
  13 C13            3.4967     5.3261    -0.9076 C.3     
  14 C14            3.9987     5.8548     0.4113 C.ar    
  15 C15            5.3219     5.6735     0.7698 C.ar    
  16 C16            3.1372     6.5261     1.2596 C.ar    
  17 C17            3.5939     7.0136     2.4702 C.ar    
  18 C18            4.9134     6.8320     2.8372 C.ar    
  19 C19            5.7834     6.1626     1.9872 C.ar    
  20 O20            1.2145    -2.0500    -0.0205 O.3     
  21 C21            1.7333    -2.6663     1.0591 C.2     
  22 O22            2.2534    -2.0118     1.9408 O.2     
  23 N23            1.6754    -4.0090     1.1612 N.am    
  24 C24            2.2397    -4.6793     2.3353 C.3     
  25 C25            1.0483    -4.7981     0.0980 C.3     
  26 F26            6.1648     5.0219    -0.0609 F       
  27 N27            7.1208     5.9819     2.3536 N.am    
  28 S28            7.5172     5.7271     3.9411 S.o     
  29 O29            7.0775     4.3955     4.1706 O.2     
  30 O30            9.0319     5.5848     3.8972 O.3     
  31 C31            9.6311     5.3525     5.1735 C.3     
  32 C32           11.1471     5.2263     5.0098 C.3     
  33 H33           -0.2942     2.1783     0.3117 H       
  34 H34           -0.6063    -0.2425     0.4771 H       
  35 H35            3.4496    -0.8873    -0.7228 H       
  36 H36            4.2529     5.4884    -1.6757 H       
  37 H37            2.5807     5.8484    -1.1835 H       
  38 H38            2.1052     6.6701     0.9756 H       
  39 H39            2.9182     7.5376     3.1298 H       
  40 H40            5.2687     7.2137     3.7829 H       
  41 H41            1.4733    -4.7701     3.1050 H       
  42 H42            2.5907    -5.6719     2.0532 H       
  43 H43            3.0747    -4.0946     2.7211 H       
  44 H44            1.7991    -5.0692    -0.6442 H       
  45 H45            0.6155    -5.7031     0.5244 H       
  46 H46            0.2638    -4.2091    -0.3771 H       
  47 H47            7.8163     6.0057     1.6778 H       
  48 H48            9.4056     6.1866     5.8380 H       
  49 H49            9.2337     4.4311     5.5992 H       
  50 H50           11.3726     4.3923     4.3454 H       
  51 H51           11.5445     6.1477     4.5841 H       
  52 H52           11.6042     5.0492     5.9834 H       
@<TRIPOS>BOND
   1    1    2 ar
   2    1    6 ar
   3    1   33 1
   4    2    3 ar
   5    2   34 1
   6    3    4 ar
   7    3   20 1
   8    4    5 ar
   9    4   35 1
  10    5    6 ar
  11    5    8 1
  12    6    7 1
  13    7   10 am
  14    7   11 2
  15    8    9 1
  16    9   10 am
  17    9   12 2
  18   10   13 1
  19   13   14 1
  20   13   36 1
  21   13   37 1
  22   14   16 ar
  23   14   15 ar
  24   15   19 ar
  25   15   26 1
  26   16   17 ar
  27   16   38 1
  28   17   18 ar
  29   17   39 1
  30   18   19 ar
  31   18   40 1
  32   19   27 1
  33   20   21 1
  34   21   22 2
  35   21   23 am
  36   23   24 1
  37   23   25 1
  38   24   41 1
  39   24   42 1
  40   24   43 1
  41   25   44 1
  42   25   45 1
  43   25   46 1
  44   27   28 am
  45   27   47 1
  46   28   29 2
  47   28   30 1
  48   30   31 1
  49   31   32 1
  50   31   48 1
  51   31   49 1
  52   32   50 1
  53   32   51 1
  54   32   52 1

#	End of record

