#	Name: ASD01812182
#	Creating user name:	WinNT
#	Creation time:	15. 06. 2019 19:28

#	Modifying user name:	WinNT
#	Modification time:	15. 06. 2019 19:28

#	Program:	/corina/corina34_cracker 3.40 0067  02.08.2006

@<TRIPOS>MOLECULE
ASD01812182
  68   73    0    0    0
SMALL
NO_CHARGES


@<TRIPOS>ATOM
   1 C1            -0.0356     1.3593     0.2310 C.ar    
   2 C2            -0.0057    -0.0336     0.2257 C.ar    
   3 C3             1.1734    -0.7095     0.1392 C.ar    
   4 C4             2.3800     0.0032     0.0533 C.ar    
   5 C5             2.3503     1.4222     0.0581 C.ar    
   6 C6             1.1133     2.0847     0.1494 C.ar    
   7 C7             3.6153    -0.6640    -0.0378 C.ar    
   8 C8             4.7694     0.0442    -0.1204 C.ar    
   9 C9             4.7565     1.4529    -0.1164 C.ar    
  10 C10            3.5523     2.1331    -0.0280 C.ar    
  11 C11            3.6565    -2.1704    -0.0431 C.3     
  12 C12            5.8456     2.4464    -0.1932 C.2     
  13 N13            5.3442     3.6928    -0.1541 N.am    
  14 C14            3.8833     3.6042    -0.0486 C.3     
  15 O15            7.0276     2.1759    -0.2792 O.2     
  16 C16            6.1247     4.9314    -0.2080 C.3     
  17 C17            6.9137     4.9804    -1.5180 C.3     
  18 C18            7.7289     6.2739    -1.5744 C.3     
  19 C19            8.6996     6.3169    -0.3925 C.3     
  20 C20            7.9106     6.2679     0.9175 C.3     
  21 C21            7.0954     4.9744     0.9738 C.3     
  22 O22            6.0071     4.9402    -2.6219 O.3     
  23 N23            3.4387    -2.6710     1.3207 N.3     
  24 C24            3.1075    -4.1016     1.3095 C.3     
  25 C25            2.7458    -4.5540     2.7261 C.3     
  26 C26            3.9321    -4.2929     3.6584 C.3     
  27 C27            4.2875    -2.8042     3.6147 C.3     
  28 C28            4.6045    -2.4026     2.1723 C.3     
  29 C29            3.5613    -4.6823     5.0663 C.ar    
  30 C30            4.4696    -4.5411     6.1042 C.ar    
  31 C31            4.0939    -4.9083     7.3825 C.ar    
  32 N32            2.8887    -5.3881     7.6198 N.ar    
  33 C33            1.9995    -5.5361     6.6573 C.ar    
  34 C34            2.3018    -5.1849     5.3553 C.ar    
  35 C35            5.0893    -5.0881     3.2167 C.1     
  36 N36            5.9824    -5.7019     2.8757 N.1     
  37 H37           -0.9844     1.8710     0.2964 H       
  38 H38           -0.9316    -0.5856     0.2916 H       
  39 H39            1.1803    -1.7895     0.1370 H       
  40 H40            1.0749     3.1640     0.1539 H       
  41 H41            5.7115    -0.4794    -0.1898 H       
  42 H42            2.8751    -2.5530    -0.6997 H       
  43 H43            4.6294    -2.5060    -0.4022 H       
  44 H44            3.4156     4.0816    -0.9097 H       
  45 H45            3.5446     4.0775     0.8729 H       
  46 H46            5.4519     5.7874    -0.1569 H       
  47 H47            7.5865     4.1244    -1.5692 H       
  48 H48            8.2909     6.3088    -2.5076 H       
  49 H49            7.0560     7.1299    -1.5232 H       
  50 H50            9.3724     5.4609    -0.4436 H       
  51 H51            9.2803     7.2384    -0.4326 H       
  52 H52            8.6021     6.2985     1.7595 H       
  53 H53            7.2377     7.1239     0.9686 H       
  54 H54            6.5333     4.9395     1.9071 H       
  55 H55            7.7683     4.1184     0.9227 H       
  56 H56            6.4389     4.9680    -3.4867 H       
  57 H57            2.2598    -4.2730     0.6461 H       
  58 H58            3.9669    -4.6706     0.9549 H       
  59 H59            1.8780    -3.9951     3.0761 H       
  60 H60            2.5152    -5.6193     2.7202 H       
  61 H61            3.4439    -2.2177     3.9787 H       
  62 H62            5.1584    -2.6193     4.2436 H       
  63 H63            5.4568    -2.9795     1.8137 H       
  64 H64            4.8441    -1.3399     2.1356 H       
  65 H65            5.4584    -4.1494     5.9162 H       
  66 H66            4.7956    -4.8014     8.1965 H       
  67 H67            1.0223    -5.9328     6.8899 H       
  68 H68            1.5692    -5.3081     4.5715 H       
@<TRIPOS>BOND
   1    1    2 ar
   2    1    6 ar
   3    1   37 1
   4    2    3 ar
   5    2   38 1
   6    3    4 ar
   7    3   39 1
   8    4    5 ar
   9    4    7 ar
  10    5    6 ar
  11    5   10 ar
  12    6   40 1
  13    7    8 ar
  14    7   11 1
  15    8    9 ar
  16    8   41 1
  17    9   10 ar
  18    9   12 1
  19   10   14 1
  20   11   23 1
  21   11   42 1
  22   11   43 1
  23   12   13 am
  24   12   15 2
  25   13   14 1
  26   13   16 1
  27   14   44 1
  28   14   45 1
  29   16   17 1
  30   16   21 1
  31   16   46 1
  32   17   18 1
  33   17   22 1
  34   17   47 1
  35   18   19 1
  36   18   48 1
  37   18   49 1
  38   19   20 1
  39   19   50 1
  40   19   51 1
  41   20   21 1
  42   20   52 1
  43   20   53 1
  44   21   54 1
  45   21   55 1
  46   22   56 1
  47   23   24 1
  48   23   28 1
  49   24   25 1
  50   24   57 1
  51   24   58 1
  52   25   26 1
  53   25   59 1
  54   25   60 1
  55   26   35 1
  56   26   27 1
  57   26   29 1
  58   27   28 1
  59   27   61 1
  60   27   62 1
  61   28   63 1
  62   28   64 1
  63   29   30 ar
  64   29   34 ar
  65   30   31 ar
  66   30   65 1
  67   31   32 ar
  68   31   66 1
  69   32   33 ar
  70   33   34 ar
  71   33   67 1
  72   34   68 1
  73   35   36 3

#	End of record

