#	Name: ASD02030733
#	Creating user name:	WinNT
#	Creation time:	15. 06. 2019 20:16

#	Modifying user name:	WinNT
#	Modification time:	15. 06. 2019 20:16

#	Program:	/corina/corina34_cracker 3.40 0067  02.08.2006

@<TRIPOS>MOLECULE
ASD02030733
  31   33    0    0    0
SMALL
NO_CHARGES


@<TRIPOS>ATOM
   1 N1            -0.0169     1.3957     0.0097 N.2     
   2 N2             0.0021    -0.0041     0.0020 N.am    
   3 C3             1.1646    -0.6797    -0.0123 C.2     
   4 N4             2.3448    -0.0325    -0.0200 N.am    
   5 C5             2.3757     1.3164    -0.0131 C.2     
   6 C6             1.1074     2.0610     0.0026 C.2     
   7 O7             1.1494    -1.8958    -0.0178 O.2     
   8 O8             3.4386     1.9089    -0.0192 O.2     
   9 O9             1.1051     3.4197     0.0094 O.3     
  10 C10           -1.2627    -0.7434     0.0101 C.3     
  11 S11           -0.8641    -3.8445     4.2516 S.3     
  12 C12           -1.5039    -2.4278     3.3899 C.2     
  13 C13           -2.3982    -1.6247     4.1510 C.2     
  14 C14           -2.7239    -1.9214     5.4133 C.2     
  15 C15           -2.3485    -2.9542     6.2557 C.2     
  16 C16           -1.4923    -3.9607     5.9215 C.2     
  17 C17           -2.9680    -0.4053     3.4540 C.3     
  18 C18           -2.5355    -0.1591     2.0251 C.2     
  19 C19           -1.6828    -1.0045     1.4336 C.2     
  20 C20           -1.1664    -2.1319     2.1037 C.2     
  21 H21            3.1737    -0.5362    -0.0303 H       
  22 H22            0.2211     3.8114     0.0197 H       
  23 H23           -2.0303    -0.1556    -0.4933 H       
  24 H24           -1.1322    -1.6923    -0.5101 H       
  25 H25           -3.4119    -1.2205     5.8625 H       
  26 H26           -2.7655    -2.9631     7.2520 H       
  27 H27           -1.2188    -4.7537     6.6016 H       
  28 H28           -4.0546    -0.4910     3.4650 H       
  29 H29           -2.6993     0.4728     4.0413 H       
  30 H30           -2.9133     0.6960     1.4843 H       
  31 H31           -0.4813    -2.7824     1.5804 H       
@<TRIPOS>BOND
   1    1    2 1
   2    1    6 2
   3    2    3 am
   4    2   10 1
   5    3    4 am
   6    3    7 2
   7    4    5 am
   8    4   21 1
   9    5    6 1
  10    5    8 2
  11    6    9 1
  12    9   22 1
  13   10   19 1
  14   10   23 1
  15   10   24 1
  16   11   12 1
  17   11   16 1
  18   12   13 1
  19   12   20 2
  20   13   14 2
  21   13   17 1
  22   14   15 1
  23   14   25 1
  24   15   16 2
  25   15   26 1
  26   16   27 1
  27   17   18 1
  28   17   28 1
  29   17   29 1
  30   18   19 2
  31   18   30 1
  32   19   20 1
  33   20   31 1

#	End of record

