#	Name: ASD02408145
#	Creating user name:	WinNT
#	Creation time:	15. 06. 2019 20:21

#	Modifying user name:	WinNT
#	Modification time:	15. 06. 2019 20:21

#	Program:	/corina/corina34_cracker 3.40 0067  02.08.2006

@<TRIPOS>MOLECULE
ASD02408145
  50   53    0    0    0
SMALL
NO_CHARGES


@<TRIPOS>ATOM
   1 C1            -1.0565     1.7044     0.2344 C.ar    
   2 C2            -1.3042     0.3396     0.2278 C.ar    
   3 C3             0.2296     2.1748     0.0108 C.ar    
   4 C4             1.2597     1.2835    -0.2178 C.ar    
   5 C5             1.0102    -0.0767    -0.2238 C.ar    
   6 C6            -0.2703    -0.5479    -0.0013 C.ar    
   7 C7             0.5021     3.6569     0.0168 C.3     
   8 C8             0.7347     4.1192     1.4321 C.2     
   9 N9             0.9971     5.4212     1.6571 N.am    
  10 N10            0.6699     3.2456     2.3999 N.2     
  11 C11            0.8673     3.5990     3.6764 C.2     
  12 C12            1.1506     4.9405     3.9821 C.2     
  13 C13            1.2099     5.8699     2.9120 C.2     
  14 N14            0.7931     2.6602     4.6759 N.pl3   
  15 C15            0.1520     2.9811     5.9584 C.3     
  16 O16            1.4520     7.0462     3.1208 O.2     
  17 C17           -0.9248     1.9306     6.2481 C.3     
  18 C18           -0.3011     0.5351     6.1846 C.3     
  19 C19            0.2648     0.2804     4.7861 C.3     
  20 C20            1.3478     1.3137     4.4810 C.3     
  21 O21            0.7483     0.4316     7.1549 O.3     
  22 C22            0.3975    -0.6416     8.0521 C.3     
  23 C23           -0.6066    -1.4791     7.2213 C.3     
  24 O24           -1.3050    -0.4501     6.4795 O.3     
  25 O25           -2.0727     2.5795     0.4540 O.3     
  26 C26           -3.3715     2.0244     0.6708 C.3     
  27 F27           -3.3415     1.1932     1.7958 F       
  28 F28           -4.2915     3.0576     0.8788 F       
  29 F29           -3.7530     1.2788    -0.4498 F       
  30 C30            1.3678     5.3584     5.3344 C.1     
  31 N31            1.5401     5.6899     6.4072 N.1     
  32 H32           -2.3043    -0.0291     0.4020 H       
  33 H33            2.2608     1.6492    -0.3922 H       
  34 H34            1.8169    -0.7720    -0.4031 H       
  35 H35           -0.4626    -1.6106    -0.0065 H       
  36 H36            1.3874     3.8660    -0.5838 H       
  37 H37           -0.3542     4.1855    -0.4020 H       
  38 H38            1.0336     6.0408     0.9116 H       
  39 H39            0.8979     2.9685     6.7531 H       
  40 H40           -0.3067     3.9682     5.9007 H       
  41 H41           -1.3392     2.0989     7.2421 H       
  42 H42           -1.7183     2.0085     5.5048 H       
  43 H43            0.6934    -0.7209     4.7440 H       
  44 H44           -0.5340     0.3659     4.0494 H       
  45 H45            1.6809     1.2002     3.4494 H       
  46 H46            2.1906     1.1702     5.1572 H       
  47 H47            1.2763    -1.2344     8.3058 H       
  48 H48           -0.0781    -0.2515     8.9519 H       
  49 H49           -0.0845    -2.1591     6.5482 H       
  50 H50           -1.2912    -2.0245     7.8708 H       
@<TRIPOS>BOND
   1    1    2 ar
   2    1    3 ar
   3    1   25 1
   4    2    6 ar
   5    2   32 1
   6    3    4 ar
   7    3    7 1
   8    4    5 ar
   9    4   33 1
  10    5    6 ar
  11    5   34 1
  12    6   35 1
  13    7    8 1
  14    7   36 1
  15    7   37 1
  16    8    9 1
  17    8   10 2
  18    9   13 am
  19    9   38 1
  20   10   11 1
  21   11   12 2
  22   11   14 1
  23   12   13 1
  24   12   30 1
  25   13   16 2
  26   14   15 1
  27   14   20 1
  28   15   17 1
  29   15   39 1
  30   15   40 1
  31   17   18 1
  32   17   41 1
  33   17   42 1
  34   18   19 1
  35   18   21 1
  36   18   24 1
  37   19   20 1
  38   19   43 1
  39   19   44 1
  40   20   45 1
  41   20   46 1
  42   21   22 1
  43   22   23 1
  44   22   47 1
  45   22   48 1
  46   23   24 1
  47   23   49 1
  48   23   50 1
  49   25   26 1
  50   26   27 1
  51   26   28 1
  52   26   29 1
  53   30   31 3

#	End of record

