#	Name: ASD01910438
#	Creating user name:	WinNT
#	Creation time:	15. 06. 2019 19:55

#	Modifying user name:	WinNT
#	Modification time:	15. 06. 2019 19:55

#	Program:	/corina/corina34_cracker 3.40 0067  02.08.2006

@<TRIPOS>MOLECULE
ASD01910438
  43   46    0    0    0
SMALL
NO_CHARGES


@<TRIPOS>ATOM
   1 C1            -0.5454     2.2375     0.3262 C.ar    
   2 C2            -0.6652     0.8578     0.3731 C.ar    
   3 C3             0.4674     0.0596     0.3715 C.ar    
   4 C4             1.7199     0.6360     0.3235 C.ar    
   5 C5             1.8449     2.0231     0.2762 C.ar    
   6 C6             0.7032     2.8221     0.2776 C.ar    
   7 F7            -1.8899     0.2893     0.4210 F       
   8 C8             3.1900     2.6475     0.2251 C.2     
   9 N9             3.4589     3.9719     0.1764 N.2     
  10 C10            4.7650     4.0647     0.1440 C.2     
  11 O11            5.2490     2.8190     0.1731 O.3     
  12 N12            4.3376     2.0203     0.2243 N.2     
  13 C13            5.5707     5.3368     0.0845 C.3     
  14 C14            6.4813     5.4226     1.3115 C.3     
  15 C15            7.2760     6.7297     1.2688 C.3     
  16 C16            8.1535     6.7483     0.0132 C.3     
  17 N17            7.3020     6.5211    -1.1623 N.am    
  18 C18            6.4289     5.3396    -1.1845 C.3     
  19 C19            7.3213     7.3802    -2.2006 C.2     
  20 C20            6.5894     7.0530    -3.4467 C.ar    
  21 O21            7.9389     8.4232    -2.1148 O.2     
  22 C22            6.4464     8.0207    -4.4379 C.ar    
  23 C23            5.7591     7.6997    -5.5983 C.ar    
  24 C24            5.2388     6.4217    -5.7263 C.ar    
  25 C25            5.4191     5.5087    -4.6991 C.ar    
  26 N26            6.0802     5.8382    -3.6111 N.ar    
  27 H27           -1.4308     2.8559     0.3231 H       
  28 H28            0.3695    -1.0154     0.4081 H       
  29 H29            2.6021     0.0131     0.3230 H       
  30 H30            0.7957     3.8975     0.2406 H       
  31 H31            4.8972     6.1937     0.0706 H       
  32 H32            5.8745     5.3959     2.2166 H       
  33 H33            7.1707     4.5783     1.3118 H       
  34 H34            6.5868     7.5738     1.2435 H       
  35 H35            7.9070     6.8011     2.1547 H       
  36 H36            8.6461     7.7168    -0.0740 H       
  37 H37            8.9029     5.9596     0.0795 H       
  38 H38            7.0377     4.4360    -1.2159 H       
  39 H39            5.7835     5.3785    -2.0620 H       
  40 H40            6.8648     9.0074    -4.3044 H       
  41 H41            5.6317     8.4292    -6.3844 H       
  42 H42            4.6978     6.1399    -6.6175 H       
  43 H43            5.0147     4.5119    -4.7953 H       
@<TRIPOS>BOND
   1    1    2 ar
   2    1    6 ar
   3    1   27 1
   4    2    3 ar
   5    2    7 1
   6    3    4 ar
   7    3   28 1
   8    4    5 ar
   9    4   29 1
  10    5    6 ar
  11    5    8 1
  12    6   30 1
  13    8    9 1
  14    8   12 2
  15    9   10 2
  16   10   11 1
  17   10   13 1
  18   11   12 1
  19   13   14 1
  20   13   18 1
  21   13   31 1
  22   14   15 1
  23   14   32 1
  24   14   33 1
  25   15   16 1
  26   15   34 1
  27   15   35 1
  28   16   17 1
  29   16   36 1
  30   16   37 1
  31   17   18 1
  32   17   19 am
  33   18   38 1
  34   18   39 1
  35   19   20 1
  36   19   21 2
  37   20   22 ar
  38   20   26 ar
  39   22   23 ar
  40   22   40 1
  41   23   24 ar
  42   23   41 1
  43   24   25 ar
  44   24   42 1
  45   25   26 ar
  46   25   43 1

#	End of record

