#	Name: ASD08170345
#	Creating user name:	WinNT
#	Creation time:	15. 06. 2019 21:17

#	Modifying user name:	WinNT
#	Modification time:	15. 06. 2019 21:17

#	Program:	/corina/corina34_cracker 3.40 0067  02.08.2006

@<TRIPOS>MOLECULE
ASD08170345
  68   71    0    0    0
SMALL
NO_CHARGES


@<TRIPOS>ATOM
   1 C1            -0.0167     1.3772     0.0096 C.ar    
   2 C2             0.0021    -0.0041     0.0020 C.ar    
   3 C3             1.2080    -0.6802    -0.0131 C.ar    
   4 C4             2.3980     0.0239    -0.0207 C.ar    
   5 C5             2.3846     1.4052    -0.0127 C.ar    
   6 C6             1.1759     2.0860     0.0020 C.ar    
   7 C7             1.2256    -2.1871    -0.0209 C.3     
   8 C8             1.2176    -2.6822    -1.4442 C.2     
   9 N9             1.2306    -4.0059    -1.6973 N.am    
  10 C10            1.2232    -4.4629    -3.0108 C.2     
  11 S11            1.2376    -6.1056    -3.4967 S.3     
  12 C12            1.2153    -5.5865    -5.1824 C.2     
  13 N13            1.2001    -4.2914    -5.1957 N.2     
  14 N14            1.1985    -3.7149    -4.0725 N.2     
  15 O15            1.1994    -1.8895    -2.3619 O.2     
  16 C16            1.2146    -6.4878    -6.3901 C.3     
  17 C17            2.6567    -6.7756    -6.8126 C.3     
  18 C18            4.4229    -8.0834    -8.6102 C.3     
  19 C19            4.5946    -8.9907    -9.8302 C.3     
  20 C20            6.0626    -9.1758   -10.1159 C.2     
  21 N21            6.8143   -10.1110    -9.6308 N.2     
  22 S22            7.0130    -8.1884   -11.1422 S.3     
  23 C23            8.3810    -9.1603   -10.8024 C.2     
  24 N24            8.0264   -10.1024    -9.9890 N.2     
  25 C25            9.7655    -8.9561   -11.3615 C.3     
  26 C26            9.9056    -9.7256   -12.6496 C.2     
  27 O27            8.9770   -10.3730   -13.0702 O.2     
  28 C28           11.2045    -9.6872   -13.4128 C.3     
  29 C29           11.0830   -10.5330   -14.6541 C.ar    
  30 C30           10.6394    -9.9663   -15.8347 C.ar    
  31 C31           11.4206   -11.8732   -14.6118 C.ar    
  32 C32           11.3106   -12.6506   -15.7485 C.ar    
  33 C33           10.8608   -12.0855   -16.9330 C.ar    
  34 C34           10.5272   -10.7395   -16.9740 C.ar    
  35 O35           10.7520   -12.8481   -18.0526 O.3     
  36 C36           10.2821   -12.1996   -19.2361 C.3     
  37 O37            1.1601     3.4449     0.0095 O.3     
  38 C38           -0.1205     4.0787     0.0246 C.3     
  39 S39            2.6558    -7.8606    -8.2663 S.3     
  40 H40           -0.9589     1.9049     0.0169 H       
  41 H41           -0.9260    -0.5563     0.0083 H       
  42 H42            3.3387    -0.5065    -0.0325 H       
  43 H43            3.3144     1.9547    -0.0179 H       
  44 H44            2.1247    -2.5426     0.4824 H       
  45 H45            0.3449    -2.5634     0.4997 H       
  46 H46            1.2451    -4.6399    -0.9633 H       
  47 H47            0.7143    -7.4245    -6.1441 H       
  48 H48            0.6870    -5.9982    -7.2086 H       
  49 H49            3.1569    -5.8389    -7.0586 H       
  50 H50            3.1843    -7.2652    -5.9940 H       
  51 H51            4.9063    -8.5404    -7.7467 H       
  52 H52            4.8790    -7.1141    -8.8112 H       
  53 H53            4.1385    -9.9600    -9.6291 H       
  54 H54            4.1112    -8.5338   -10.6937 H       
  55 H55            9.9273    -7.8953   -11.5525 H       
  56 H56           10.5036    -9.3127   -10.6431 H       
  57 H57           11.4300    -8.6587   -13.6946 H       
  58 H58           12.0063   -10.0762   -12.7851 H       
  59 H59           10.3802    -8.9184   -15.8661 H       
  60 H60           11.7711   -12.3125   -13.6896 H       
  61 H61           11.5748   -13.6972   -15.7151 H       
  62 H62           10.1768   -10.2973   -17.8949 H       
  63 H63            9.2851   -11.7967   -19.0582 H       
  64 H64           10.9603   -11.3879   -19.4993 H       
  65 H65           10.2425   -12.9195   -20.0536 H       
  66 H66           -0.6822     3.7842    -0.8618 H       
  67 H67           -0.6659     3.7746     0.9180 H       
  68 H68            0.0097     5.1609     0.0292 H       
@<TRIPOS>BOND
   1    1    2 ar
   2    1    6 ar
   3    1   40 1
   4    2    3 ar
   5    2   41 1
   6    3    4 ar
   7    3    7 1
   8    4    5 ar
   9    4   42 1
  10    5    6 ar
  11    5   43 1
  12    6   37 1
  13    7    8 1
  14    7   44 1
  15    7   45 1
  16    8    9 am
  17    8   15 2
  18    9   10 1
  19    9   46 1
  20   10   11 1
  21   10   14 2
  22   11   12 1
  23   12   13 2
  24   12   16 1
  25   13   14 1
  26   16   17 1
  27   16   47 1
  28   16   48 1
  29   17   39 1
  30   17   49 1
  31   17   50 1
  32   18   19 1
  33   18   39 1
  34   18   51 1
  35   18   52 1
  36   19   20 1
  37   19   53 1
  38   19   54 1
  39   20   21 2
  40   20   22 1
  41   21   24 1
  42   22   23 1
  43   23   24 2
  44   23   25 1
  45   25   26 1
  46   25   55 1
  47   25   56 1
  48   26   27 2
  49   26   28 1
  50   28   29 1
  51   28   57 1
  52   28   58 1
  53   29   30 ar
  54   29   31 ar
  55   30   34 ar
  56   30   59 1
  57   31   32 ar
  58   31   60 1
  59   32   33 ar
  60   32   61 1
  61   33   34 ar
  62   33   35 1
  63   34   62 1
  64   35   36 1
  65   36   63 1
  66   36   64 1
  67   36   65 1
  68   37   38 1
  69   38   66 1
  70   38   67 1
  71   38   68 1

#	End of record

