#	Name: ASD03092634
#	Creating user name:	WinNT
#	Creation time:	15. 06. 2019 20:32

#	Modifying user name:	WinNT
#	Modification time:	15. 06. 2019 20:32

#	Program:	/corina/corina34_cracker 3.40 0067  02.08.2006

@<TRIPOS>MOLECULE
ASD03092634
  50   53    0    0    0
SMALL
NO_CHARGES


@<TRIPOS>ATOM
   1 C1            -0.3816     1.5695     0.2777 C.ar    
   2 C2            -0.2905     0.1660     0.1785 C.ar    
   3 C3             0.9870    -0.4363     0.1557 C.ar    
   4 C4             2.1007     0.3980     0.2333 C.ar    
   5 C5             1.9177     1.7690     0.3286 C.ar    
   6 N6             0.7174     2.3057     0.3484 N.ar    
   7 N7            -2.4376     0.6704     0.1886 N.2     
   8 N8            -1.7216     1.8697     0.2829 N.pl3   
   9 C9            -1.6091    -0.3333     0.1217 C.2     
  10 C10            1.1377    -1.9032     0.0535 C.2     
  11 O11            0.3350    -2.6361     0.5978 O.2     
  12 N12            2.1651    -2.4281    -0.6432 N.am    
  13 C13            1.9167    -4.5932     0.4093 C.ar    
  14 C14            2.3768    -3.8105    -0.6421 C.ar    
  15 C15            3.0517    -4.4229    -1.6952 C.ar    
  16 C16            3.2365    -5.7951    -1.6490 C.ar    
  17 C17            2.7492    -6.5061    -0.5684 C.ar    
  18 N18            2.1136    -5.8963     0.4133 N.ar    
  19 C19            3.5678    -3.6129    -2.8565 C.3     
  20 C20            3.1251     2.6669     0.4122 C.3     
  21 C21           -1.9950    -1.7858     0.0107 C.3     
  22 C22           -2.2764     3.1543     0.3680 C.ar    
  23 C23           -3.4475     3.4519    -0.3164 C.ar    
  24 C24           -3.9933     4.7173    -0.2322 C.ar    
  25 C25           -3.3719     5.6915     0.5355 C.ar    
  26 C26           -2.2018     5.3949     1.2195 C.ar    
  27 C27           -1.6583     4.1281     1.1412 C.ar    
  28 O28           -3.9094     6.9376     0.6172 O.3     
  29 C29           -3.2169     7.8911     1.4255 C.3     
  30 H30            3.0966    -0.0195     0.2196 H       
  31 H31            2.7576    -1.8471    -1.1454 H       
  32 H32            1.3959    -4.1287     1.2335 H       
  33 H33            3.7551    -6.3036    -2.4484 H       
  34 H34            2.8906    -7.5760    -0.5275 H       
  35 H35            4.5841    -3.2806    -2.6446 H       
  36 H36            3.5667    -4.2272    -3.7569 H       
  37 H37            2.9260    -2.7451    -3.0080 H       
  38 H38            3.4325     2.9569    -0.5925 H       
  39 H39            2.8756     3.5586     0.9873 H       
  40 H40            3.9404     2.1348     0.9023 H       
  41 H41           -2.0102    -2.2347     1.0039 H       
  42 H42           -2.9846    -1.8655    -0.4392 H       
  43 H43           -1.2693    -2.3079    -0.6129 H       
  44 H44           -3.9310     2.6938    -0.9146 H       
  45 H45           -4.9041     4.9488    -0.7645 H       
  46 H46           -1.7185     6.1537     1.8170 H       
  47 H47           -0.7499     3.8960     1.6773 H       
  48 H48           -3.7506     8.8413     1.4042 H       
  49 H49           -3.1638     7.5272     2.4516 H       
  50 H50           -2.2082     8.0322     1.0373 H       
@<TRIPOS>BOND
   1    1    2 ar
   2    1    6 ar
   3    1    8 1
   4    2    3 ar
   5    2    9 1
   6    3    4 ar
   7    3   10 1
   8    4    5 ar
   9    4   30 1
  10    5    6 ar
  11    5   20 1
  12    7    8 1
  13    7    9 2
  14    8   22 1
  15    9   21 1
  16   10   11 2
  17   10   12 am
  18   12   14 1
  19   12   31 1
  20   13   14 ar
  21   13   18 ar
  22   13   32 1
  23   14   15 ar
  24   15   16 ar
  25   15   19 1
  26   16   17 ar
  27   16   33 1
  28   17   18 ar
  29   17   34 1
  30   19   35 1
  31   19   36 1
  32   19   37 1
  33   20   38 1
  34   20   39 1
  35   20   40 1
  36   21   41 1
  37   21   42 1
  38   21   43 1
  39   22   23 ar
  40   22   27 ar
  41   23   24 ar
  42   23   44 1
  43   24   25 ar
  44   24   45 1
  45   25   26 ar
  46   25   28 1
  47   26   27 ar
  48   26   46 1
  49   27   47 1
  50   28   29 1
  51   29   48 1
  52   29   49 1
  53   29   50 1

#	End of record

