#	Name: ASD01140350
#	Creating user name:	WinNT
#	Creation time:	15. 06. 2019 19:00

#	Modifying user name:	WinNT
#	Modification time:	15. 06. 2019 19:00

#	Program:	/corina/corina34_cracker 3.40 0067  02.08.2006

@<TRIPOS>MOLECULE
ASD01140350
  54   57    0    0    0
SMALL
NO_CHARGES


@<TRIPOS>ATOM
   1 C1             0.2314     1.7409     0.4600 C.ar    
   2 C2             0.1137     0.3486     0.4588 C.ar    
   3 C3             1.2452    -0.4431     0.3075 C.ar    
   4 C4             2.5078     0.1447     0.1555 C.ar    
   5 C5             2.6064     1.5383     0.1352 C.ar    
   6 C6             1.4683     2.3233     0.2992 C.ar    
   7 C7             3.6700    -0.7455     0.0565 C.2     
   8 N8             4.6883    -0.6302    -0.7212 N.2     
   9 C9             4.8029     0.4697    -1.6859 C.3     
  10 C10            4.8107     1.7611    -0.9095 C.2     
  11 N11            3.8253     2.1873    -0.0805 N.pl3   
  12 C12            4.2312     3.3648     0.4673 C.2     
  13 C13            5.7859     2.7092    -0.8943 C.2     
  14 N14            5.3944     3.6803    -0.0279 N.2     
  15 C15            3.6712    -1.9183     0.9616 C.ar    
  16 C16            4.3804    -3.0686     0.6163 C.ar    
  17 C17            2.9677    -1.8746     2.1652 C.ar    
  18 C18            2.9726    -2.9702     3.0040 C.ar    
  19 C19            3.6733    -4.1103     2.6532 C.ar    
  20 C20            4.3776    -4.1577     1.4634 C.ar    
  21 C21           -1.1724    -0.2619     0.6138 C.1     
  22 C22           -2.2268    -0.7623     0.7409 C.1     
  23 C23            7.0356     2.6874    -1.6741 C.2     
  24 O24            7.2713     1.7555    -2.4191 O.2     
  25 N25            7.9177     3.7002    -1.5618 N.am    
  26 C26            9.1605     3.6786    -2.3372 C.3     
  27 Si27          -3.9331    -1.5723     0.9466 Si      
  28 C28           -3.7502    -3.4257     0.9021 C.3     
  29 C29           -4.6710    -1.0601     2.5787 C.3     
  30 C30           -5.0513    -1.0252    -0.4394 C.3     
  31 H31           -0.6461     2.3584     0.5824 H       
  32 H32            1.1510    -1.5190     0.3074 H       
  33 H33            1.5567     3.3996     0.3003 H       
  34 H34            5.7308     0.3718    -2.2493 H       
  35 H35            3.9524     0.4535    -2.3674 H       
  36 H36            3.6793     3.9435     1.1932 H       
  37 H37            4.9303    -3.1068    -0.3125 H       
  38 H38            2.4207    -0.9849     2.4402 H       
  39 H39            2.4286    -2.9374     3.9364 H       
  40 H40            3.6744    -4.9652     3.3132 H       
  41 H41            4.9224    -5.0507     1.1948 H       
  42 H42            7.7297     4.4435    -0.9676 H       
  43 H43            9.7395     2.7943    -2.0709 H       
  44 H44            8.9245     3.6516    -3.4011 H       
  45 H45            9.7420     4.5737    -2.1167 H       
  46 H46           -3.0960    -3.7458     1.7130 H       
  47 H47           -4.7291    -3.8904     1.0201 H       
  48 H48           -3.3185    -3.7254    -0.0529 H       
  49 H49           -4.7780     0.0244     2.6048 H       
  50 H50           -5.6499    -1.5247     2.6967 H       
  51 H51           -4.0167    -1.3802     3.3897 H       
  52 H52           -4.6197    -1.3248    -1.3944 H       
  53 H53           -6.0303    -1.4898    -0.3214 H       
  54 H54           -5.1584     0.0593    -0.4134 H       
@<TRIPOS>BOND
   1    1    2 ar
   2    1    6 ar
   3    1   31 1
   4    2    3 ar
   5    2   21 1
   6    3    4 ar
   7    3   32 1
   8    4    5 ar
   9    4    7 1
  10    5    6 ar
  11    5   11 1
  12    6   33 1
  13    7    8 2
  14    7   15 1
  15    8    9 1
  16    9   10 1
  17    9   34 1
  18    9   35 1
  19   10   11 1
  20   10   13 2
  21   11   12 1
  22   12   14 2
  23   12   36 1
  24   13   14 1
  25   13   23 1
  26   15   16 ar
  27   15   17 ar
  28   16   20 ar
  29   16   37 1
  30   17   18 ar
  31   17   38 1
  32   18   19 ar
  33   18   39 1
  34   19   20 ar
  35   19   40 1
  36   20   41 1
  37   21   22 3
  38   22   27 1
  39   23   24 2
  40   23   25 am
  41   25   26 1
  42   25   42 1
  43   26   43 1
  44   26   44 1
  45   26   45 1
  46   27   28 1
  47   27   29 1
  48   27   30 1
  49   28   46 1
  50   28   47 1
  51   28   48 1
  52   29   49 1
  53   29   50 1
  54   29   51 1
  55   30   52 1
  56   30   53 1
  57   30   54 1

#	End of record

