#	Name: ASD03092006
#	Creating user name:	WinNT
#	Creation time:	15. 06. 2019 20:31

#	Modifying user name:	WinNT
#	Modification time:	15. 06. 2019 20:31

#	Program:	/corina/corina34_cracker 3.40 0067  02.08.2006

@<TRIPOS>MOLECULE
ASD03092006
  50   52    0    0    0
SMALL
NO_CHARGES


@<TRIPOS>ATOM
   1 C1             0.0729     1.0620    -0.8424 C.ar    
   2 N2             0.0052    -0.2153    -0.5188 N.ar    
   3 C3             1.0463    -0.8739    -0.0457 C.ar    
   4 C4             2.2608    -0.2454     0.1318 C.ar    
   5 C5             2.3784     1.1096    -0.1985 C.ar    
   6 C6             1.2489     1.7681    -0.6972 C.ar    
   7 C7             0.9058    -2.3326     0.3059 C.3     
   8 C8             3.6611     1.8258    -0.0251 C.2     
   9 C9             4.9021     1.2583     0.0335 C.2     
  10 C10            5.8361     2.2880     0.2038 C.2     
  11 N11            5.1910     3.4310     0.2467 N.2     
  12 N12            3.8221     3.1739     0.0996 N.pl3   
  13 C13            2.7523     4.1748     0.0914 C.3     
  14 C14            2.6012     4.7481    -1.3191 C.3     
  15 C15            1.4185     5.7183    -1.3512 C.3     
  16 C16            1.1895     6.1959    -2.7866 C.3     
  17 N17            7.2227     2.1261     0.3106 N.pl3   
  18 C18            8.0553     3.2481     0.3667 C.ar    
  19 C19            9.2931     3.1647     0.9907 C.ar    
  20 C20           10.1150     4.2759     1.0444 C.ar    
  21 C21            9.7026     5.4716     0.4760 C.ar    
  22 C22            8.4686     5.5552    -0.1457 C.ar    
  23 C23            7.6478     4.4460    -0.2067 C.ar    
  24 F24           11.3195     4.1964     1.6510 F       
  25 F25           10.5060     6.5565     0.5294 F       
  26 O26            3.7965     5.4421    -1.6818 O.3     
  27 O27            2.1544    -2.8273     0.7941 O.3     
  28 C28            2.1299    -4.2089     1.1580 C.3     
  29 H29           -0.8032     1.5604    -1.2303 H       
  30 H30            3.1085    -0.7905     0.5202 H       
  31 H31            1.2972     2.8134    -0.9644 H       
  32 H32            0.1429    -2.4489     1.0757 H       
  33 H33            0.6147    -2.8939    -0.5819 H       
  34 H34            5.1237     0.2037    -0.0382 H       
  35 H35            1.8157     3.7080     0.3962 H       
  36 H36            3.0008     4.9778     0.7853 H       
  37 H37            2.4242     3.9361    -2.0243 H       
  38 H38            0.5235     5.2121    -0.9895 H       
  39 H39            1.6342     6.5753    -0.7131 H       
  40 H40            0.3470     6.8871    -2.8095 H       
  41 H41            2.0846     6.7020    -3.1482 H       
  42 H42            0.9739     5.3389    -3.4246 H       
  43 H43            7.6057     1.2357     0.3456 H       
  44 H44            9.6135     2.2334     1.4338 H       
  45 H45            8.1492     6.4875    -0.5875 H       
  46 H46            6.6852     4.5125    -0.6920 H       
  47 H47            4.0164     6.1795    -1.0961 H       
  48 H48            3.1144    -4.5073     1.5183 H       
  49 H49            1.3924    -4.3642     1.9454 H       
  50 H50            1.8642    -4.8092     0.2878 H       
@<TRIPOS>BOND
   1    1    2 ar
   2    1    6 ar
   3    1   29 1
   4    2    3 ar
   5    3    4 ar
   6    3    7 1
   7    4    5 ar
   8    4   30 1
   9    5    6 ar
  10    5    8 1
  11    6   31 1
  12    7   27 1
  13    7   32 1
  14    7   33 1
  15    8    9 2
  16    8   12 1
  17    9   10 1
  18    9   34 1
  19   10   11 2
  20   10   17 1
  21   11   12 1
  22   12   13 1
  23   13   14 1
  24   13   35 1
  25   13   36 1
  26   14   15 1
  27   14   26 1
  28   14   37 1
  29   15   16 1
  30   15   38 1
  31   15   39 1
  32   16   40 1
  33   16   41 1
  34   16   42 1
  35   17   18 1
  36   17   43 1
  37   18   19 ar
  38   18   23 ar
  39   19   20 ar
  40   19   44 1
  41   20   21 ar
  42   20   24 1
  43   21   22 ar
  44   21   25 1
  45   22   23 ar
  46   22   45 1
  47   23   46 1
  48   26   47 1
  49   27   28 1
  50   28   48 1
  51   28   49 1
  52   28   50 1

#	End of record

