#	Name: ASD01200197
#	Creating user name:	WinNT
#	Creation time:	15. 06. 2019 19:08

#	Modifying user name:	WinNT
#	Modification time:	15. 06. 2019 19:08

#	Program:	/corina/corina34_cracker 3.40 0067  02.08.2006

@<TRIPOS>MOLECULE
ASD01200197
  53   55    0    0    0
SMALL
NO_CHARGES


@<TRIPOS>ATOM
   1 C1            -0.0171     1.3853     0.0060 C.ar    
   2 N2             0.0021    -0.0041     0.0020 N.am    
   3 C3            -1.1504    -0.6943     0.1110 C.2     
   4 C4            -1.1435    -2.1964    -0.0102 C.3     
   5 S5            -2.8340    -2.8261     0.1804 S.3     
   6 C6            -2.6233    -4.6195     0.0068 C.3     
   7 N7            -3.8236    -5.3191     0.4834 N.am    
   8 C8            -4.3249    -6.0105    -0.5573 C.2     
   9 C9            -3.4923    -5.8015    -1.7463 C.2     
  10 C10           -2.4825    -4.9890    -1.4516 C.2     
  11 C11           -3.7435    -6.4162    -3.0991 C.3     
  12 C12           -1.4019    -4.5242    -2.3936 C.3     
  13 O13           -5.3217    -6.7060    -0.5173 O.2     
  14 C14           -4.3738    -5.2727     1.8404 C.3     
  15 C15           -5.3587    -4.1368     1.9445 C.ar    
  16 C16           -6.6940    -4.3521     1.6590 C.ar    
  17 C17           -7.5982    -3.3114     1.7546 C.ar    
  18 C18           -7.1661    -2.0526     2.1365 C.ar    
  19 C19           -5.8284    -1.8381     2.4223 C.ar    
  20 C20           -4.9270    -2.8817     2.3311 C.ar    
  21 F21           -8.0491    -1.0343     2.2299 F       
  22 O22           -2.1929    -0.1065     0.3067 O.2     
  23 N23           -1.1792     2.0224     0.0192 N.ar    
  24 C24           -1.2464     3.3372     0.0235 C.ar    
  25 C25           -0.0812     4.1064     0.0137 C.ar    
  26 C26            1.1630     3.4574    -0.0003 C.ar    
  27 C27            1.1852     2.0883     0.0019 C.ar    
  28 C28           -0.1568     5.5792     0.0175 C.2     
  29 O29           -1.3567     6.1922     0.0305 O.3     
  30 O30            0.8629     6.2399     0.0089 O.2     
  31 C31           -1.3552     7.6442     0.0335 C.3     
  32 H32            0.8449    -0.4772    -0.0793 H       
  33 H33           -0.7583    -2.4800    -0.9896 H       
  34 H34           -0.5079    -2.6207     0.7670 H       
  35 H35           -1.7482    -4.9507     0.5659 H       
  36 H36           -4.6380    -7.0377    -3.0553 H       
  37 H37           -3.8858    -5.6262    -3.8364 H       
  38 H38           -2.8886    -7.0295    -3.3839 H       
  39 H39           -1.5671    -4.9596    -3.3792 H       
  40 H40           -1.4273    -3.4371    -2.4677 H       
  41 H41           -0.4296    -4.8400    -2.0153 H       
  42 H42           -4.8793    -6.2131     2.0598 H       
  43 H43           -3.5653    -5.1193     2.5552 H       
  44 H44           -7.0308    -5.3340     1.3607 H       
  45 H45           -8.6413    -3.4797     1.5311 H       
  46 H46           -5.4903    -0.8567     2.7203 H       
  47 H47           -3.8835    -2.7146     2.5539 H       
  48 H48           -2.2101     3.8246     0.0343 H       
  49 H49            2.0819     4.0248    -0.0085 H       
  50 H50            2.1262     1.5585    -0.0086 H       
  51 H51           -0.8323     8.0051     0.9192 H       
  52 H52           -0.8497     8.0089    -0.8607 H       
  53 H53           -2.3824     8.0086     0.0444 H       
@<TRIPOS>BOND
   1    1    2 1
   2    1   23 ar
   3    1   27 ar
   4    2    3 am
   5    2   32 1
   6    3    4 1
   7    3   22 2
   8    4    5 1
   9    4   33 1
  10    4   34 1
  11    5    6 1
  12    6    7 1
  13    6   10 1
  14    6   35 1
  15    7    8 am
  16    7   14 1
  17    8    9 1
  18    8   13 2
  19    9   10 2
  20    9   11 1
  21   10   12 1
  22   11   36 1
  23   11   37 1
  24   11   38 1
  25   12   39 1
  26   12   40 1
  27   12   41 1
  28   14   15 1
  29   14   42 1
  30   14   43 1
  31   15   16 ar
  32   15   20 ar
  33   16   17 ar
  34   16   44 1
  35   17   18 ar
  36   17   45 1
  37   18   19 ar
  38   18   21 1
  39   19   20 ar
  40   19   46 1
  41   20   47 1
  42   23   24 ar
  43   24   25 ar
  44   24   48 1
  45   25   26 ar
  46   25   28 1
  47   26   27 ar
  48   26   49 1
  49   27   50 1
  50   28   29 1
  51   28   30 2
  52   29   31 1
  53   31   51 1
  54   31   52 1
  55   31   53 1

#	End of record

