#	Name: ASD07930930
#	Creating user name:	WinNT
#	Creation time:	15. 06. 2019 21:13

#	Modifying user name:	WinNT
#	Modification time:	15. 06. 2019 21:13

#	Program:	/corina/corina34_cracker 3.40 0067  02.08.2006

@<TRIPOS>MOLECULE
ASD07930930
  39   41    0    0    0
SMALL
NO_CHARGES


@<TRIPOS>ATOM
   1 N1             0.6388     1.5849    -1.8591 N.2     
   2 N2             0.9911     0.3045    -2.2890 N.am    
   3 C3             2.0297    -0.1562    -1.5658 C.2     
   4 C4             2.3686     0.8597    -0.6292 C.2     
   5 C5             1.4197     1.9631    -0.8800 C.2     
   6 O6             2.5759    -1.2397    -1.6898 O.2     
   7 C7             1.3633     3.2558    -0.1589 C.ar    
   8 C8             2.4263     4.1574    -0.2509 C.ar    
   9 C9             2.3662     5.3618     0.4243 C.ar    
  10 C10            1.2567     5.6738     1.1891 C.ar    
  11 C11            0.2017     4.7840     1.2837 C.ar    
  12 C12            0.2464     3.5805     0.6099 C.ar    
  13 F13            3.5103     3.8528    -0.9975 F       
  14 C14            0.3570    -0.3987    -3.3214 C.ar    
  15 C15           -1.0175    -0.6093    -3.2797 C.ar    
  16 C16           -1.6393    -1.3035    -4.3011 C.ar    
  17 C17           -0.8959    -1.7879    -5.3620 C.ar    
  18 C18            0.4702    -1.5796    -5.4054 C.ar    
  19 C19            1.0976    -0.8819    -4.3912 C.ar    
  20 F20           -1.7433    -0.1369    -2.2428 F       
  21 C21            3.3747     0.8217     0.3173 C.2     
  22 N22            4.0721    -0.3165     0.5154 N.pl3   
  23 C23            3.3646    -1.5833     0.7171 C.3     
  24 C24            5.5367    -0.2852     0.5287 C.3     
  25 H25            3.1870     6.0603     0.3550 H       
  26 H26            1.2141     6.6161     1.7151 H       
  27 H27           -0.6614     5.0339     1.8829 H       
  28 H28           -0.5805     2.8895     0.6813 H       
  29 H29           -2.7063    -1.4679    -4.2702 H       
  30 H30           -1.3836    -2.3304    -6.1584 H       
  31 H31            1.0473    -1.9594    -6.2355 H       
  32 H32            2.1641    -0.7162    -4.4288 H       
  33 H33            3.6028     1.7029     0.8986 H       
  34 H34            3.3025    -2.1196    -0.2298 H       
  35 H35            3.9056    -2.1900     1.4433 H       
  36 H36            2.3594    -1.3831     1.0879 H       
  37 H37            5.8871    -0.1089     1.5456 H       
  38 H38            5.9238    -1.2394     0.1713 H       
  39 H39            5.8889     0.5160    -0.1210 H       
@<TRIPOS>BOND
   1    1    2 1
   2    1    5 2
   3    2    3 am
   4    2   14 1
   5    3    4 1
   6    3    6 2
   7    4    5 1
   8    4   21 2
   9    5    7 1
  10    7    8 ar
  11    7   12 ar
  12    8    9 ar
  13    8   13 1
  14    9   10 ar
  15    9   25 1
  16   10   11 ar
  17   10   26 1
  18   11   12 ar
  19   11   27 1
  20   12   28 1
  21   14   15 ar
  22   14   19 ar
  23   15   16 ar
  24   15   20 1
  25   16   17 ar
  26   16   29 1
  27   17   18 ar
  28   17   30 1
  29   18   19 ar
  30   18   31 1
  31   19   32 1
  32   21   22 1
  33   21   33 1
  34   22   23 1
  35   22   24 1
  36   23   34 1
  37   23   35 1
  38   23   36 1
  39   24   37 1
  40   24   38 1
  41   24   39 1

#	End of record

