#	Name: ASD02038539
#	Creating user name:	WinNT
#	Creation time:	15. 06. 2019 20:16

#	Modifying user name:	WinNT
#	Modification time:	15. 06. 2019 20:16

#	Program:	/corina/corina34_cracker 3.40 0067  02.08.2006

@<TRIPOS>MOLECULE
ASD02038539
  49   52    0    0    0
SMALL
NO_CHARGES


@<TRIPOS>ATOM
   1 C1            -0.0184     1.5028     0.0103 C.3     
   2 C2             1.0911    -6.2058     0.8590 C.3     
   3 N3             0.9329    -6.7711    -0.4896 N.am    
   4 C4             1.7226    -7.7771    -0.9150 C.2     
   5 C5            -0.1103    -6.2099    -1.3614 C.3     
   6 C6             0.0512    -4.6864    -1.3951 C.3     
   7 N7             0.0577    -4.1674    -0.0209 N.3     
   8 C8             0.0387    -2.7708    -0.0132 C.ar    
   9 C9             0.0412    -2.0812     1.1927 C.ar    
  10 C10            0.0229    -0.7003     1.1966 C.ar    
  11 C11            0.0021    -0.0041     0.0020 C.ar    
  12 C12           -0.0005    -0.6874    -1.2002 C.ar    
  13 C13            0.0231    -2.0682    -1.2114 C.ar    
  14 C14            1.2053    -4.6825     0.7379 C.3     
  15 C15            1.5432    -8.3414    -2.3007 C.3     
  16 O16            2.4906    -9.3897    -2.5145 O.3     
  17 C17            2.4629   -10.0095    -3.7244 C.ar    
  18 C18            3.3547   -11.0341    -3.9964 C.ar    
  19 O19            2.5775    -8.2281    -0.1825 O.2     
  20 C20            3.3242   -11.6649    -5.2307 C.ar    
  21 C21            2.3958   -11.2656    -6.1939 C.ar    
  22 C22            1.5059   -10.2397    -5.9147 C.ar    
  23 C23            1.5368    -9.6177    -4.6824 C.ar    
  24 N24            4.0684   -12.6993    -5.7928 N.am    
  25 C25            3.6144   -12.9201    -7.0408 C.2     
  26 N26            2.6054   -12.0714    -7.3131 N.am    
  27 O27            4.0506   -13.7590    -7.8070 O.2     
  28 H28            1.0042     1.8801     0.0026 H       
  29 H29           -0.5455     1.8639    -0.8728 H       
  30 H30           -0.5286     1.8543     0.9071 H       
  31 H31            0.2231    -6.4607     1.4670 H       
  32 H32            1.9945    -6.6052     1.3198 H       
  33 H33           -0.0011    -6.6120    -2.3686 H       
  34 H34           -1.0937    -6.4652    -0.9668 H       
  35 H35            0.9909    -4.4310    -1.8848 H       
  36 H36           -0.7787    -4.2448    -1.9468 H       
  37 H37            0.0571    -2.6243     2.1260 H       
  38 H38            0.0244    -0.1635     2.1338 H       
  39 H39           -0.0167    -0.1406    -2.1314 H       
  40 H40            0.0215    -2.6013    -2.1507 H       
  41 H41            1.2123    -4.2380     1.7331 H       
  42 H42            2.1289    -4.4271     0.2185 H       
  43 H43            0.5331    -8.7380    -2.4036 H       
  44 H44            1.7008    -7.5534    -3.0372 H       
  45 H45            4.0719   -11.3403    -3.2492 H       
  46 H46            0.7873    -9.9298    -6.6589 H       
  47 H47            0.8434    -8.8186    -4.4654 H       
  48 H48            4.7913   -13.1790    -5.3589 H       
  49 H49            2.1090   -12.0277    -8.1453 H       
@<TRIPOS>BOND
   1    1   11 1
   2    1   28 1
   3    1   29 1
   4    1   30 1
   5    2    3 1
   6    2   14 1
   7    2   31 1
   8    2   32 1
   9    3    4 am
  10    3    5 1
  11    4   15 1
  12    4   19 2
  13    5    6 1
  14    5   33 1
  15    5   34 1
  16    6    7 1
  17    6   35 1
  18    6   36 1
  19    7    8 1
  20    7   14 1
  21    8    9 ar
  22    8   13 ar
  23    9   10 ar
  24    9   37 1
  25   10   11 ar
  26   10   38 1
  27   11   12 ar
  28   12   13 ar
  29   12   39 1
  30   13   40 1
  31   14   41 1
  32   14   42 1
  33   15   16 1
  34   15   43 1
  35   15   44 1
  36   16   17 1
  37   17   18 ar
  38   17   23 ar
  39   18   20 ar
  40   18   45 1
  41   20   21 ar
  42   20   24 1
  43   21   22 ar
  44   21   26 1
  45   22   23 ar
  46   22   46 1
  47   23   47 1
  48   24   25 am
  49   24   48 1
  50   25   26 am
  51   25   27 2
  52   26   49 1

#	End of record

