#	Name: ASD04882211
#	Creating user name:	WinNT
#	Creation time:	15. 06. 2019 20:54

#	Modifying user name:	WinNT
#	Modification time:	15. 06. 2019 20:54

#	Program:	/corina/corina34_cracker 3.40 0067  02.08.2006

@<TRIPOS>MOLECULE
ASD04882211
  82   86    0    0    0
SMALL
NO_CHARGES


@<TRIPOS>ATOM
   1 C1            -0.3284     1.6201    -0.6664 C.2     
   2 C2            -0.1742     0.1965    -0.3241 C.2     
   3 N3            -1.2429    -0.6241    -0.3570 N.am    
   4 C4            -1.0755    -2.0008    -0.1570 C.ar    
   5 C5            -2.1284    -2.7668     0.3510 C.ar    
   6 C6            -1.9638    -4.1328     0.5499 C.ar    
   7 C7            -0.7633    -4.7361     0.2474 C.ar    
   8 C8             0.2937    -3.9759    -0.2610 C.ar    
   9 C9             0.1289    -2.6034    -0.4673 C.ar    
  10 N10           -3.3438    -2.1608     0.6587 N.3     
  11 C11           -3.2056    -1.2583     1.8103 C.3     
  12 C12           -4.3867    -3.1668     0.9037 C.3     
  13 C13           -5.7212    -2.4623     1.1594 C.3     
  14 N14           -5.5830    -1.5599     2.3109 N.3     
  15 C15           -4.5401    -0.5539     2.0659 C.3     
  16 C16           -6.8021    -0.9520     2.6196 C.ar    
  17 C17           -7.3767    -1.1399     3.8701 C.ar    
  18 C18           -7.4400    -0.1535     1.6785 C.ar    
  19 C19           -8.6451     0.4458     1.9869 C.ar    
  20 C20           -9.2170     0.2524     3.2312 C.ar    
  21 C21           -8.5824    -0.5374     4.1720 C.ar    
  22 C22            1.5798    -4.6224    -0.5845 C.2     
  23 N23            1.7360    -5.9468    -0.3899 N.am    
  24 O24            2.4988    -3.9602    -1.0267 O.2     
  25 O25            0.9178    -0.2392    -0.0115 O.2     
  26 C26            0.6887     2.5084    -0.6081 C.2     
  27 S27            0.1077     4.0454    -1.0790 S.3     
  28 C28           -1.4599     3.4149    -1.3270 C.2     
  29 N29           -1.4857     2.1535    -1.0693 N.2     
  30 C30           -6.6856    -2.0006     4.8961 C.3     
  31 C31            3.0131    -6.5888    -0.7112 C.3     
  32 C32            2.9248    -8.0842    -0.4000 C.3     
  33 C33            4.2585    -8.7546    -0.7355 C.3     
  34 N34            4.1739   -10.1864    -0.4375 N.am    
  35 C35            3.7361   -11.2075    -1.3965 C.3     
  36 C36            3.3921   -12.4507    -0.5466 C.3     
  37 C37            4.2735   -12.2308     0.7047 C.3     
  38 C38            4.4929   -10.7346     0.7477 C.2     
  39 O39            4.8914   -10.1184     1.7133 O.2     
  40 Cl40          -2.8264     4.3436    -1.8595 Cl      
  41 C41            2.1037     2.1950    -0.1949 C.3     
  42 C42            3.0698     2.6728    -1.2808 C.3     
  43 C43            2.4210     2.9094     1.1203 C.3     
  44 H44           -2.1279    -0.2616    -0.5192 H       
  45 H45           -2.7790    -4.7221     0.9430 H       
  46 H46           -0.6384    -5.7975     0.4034 H       
  47 H47            0.9438    -2.0135    -0.8603 H       
  48 H48           -2.9237    -1.8341     2.6918 H       
  49 H49           -2.4366    -0.5151     1.5997 H       
  50 H50           -4.4787    -3.8149     0.0322 H       
  51 H51           -4.1181    -3.7642     1.7750 H       
  52 H52           -6.0032    -1.8865     0.2779 H       
  53 H53           -6.4902    -3.2055     1.3700 H       
  54 H54           -4.4481     0.0942     2.9374 H       
  55 H55           -4.8087     0.0436     1.1947 H       
  56 H56           -6.9936    -0.0015     0.7069 H       
  57 H57           -9.1414     1.0667     1.2557 H       
  58 H58          -10.1593     0.7229     3.4701 H       
  59 H59           -9.0317    -0.6865     5.1427 H       
  60 H60            1.0029    -6.4750    -0.0372 H       
  61 H61           -6.0180    -1.3837     5.4976 H       
  62 H62           -7.4308    -2.4655     5.5417 H       
  63 H63           -6.1083    -2.7751     4.3912 H       
  64 H64            3.2331    -6.4503    -1.7698 H       
  65 H65            3.8061    -6.1394    -0.1135 H       
  66 H66            2.7047    -8.2226     0.6586 H       
  67 H67            2.1317    -8.5335    -0.9977 H       
  68 H68            4.4786    -8.6161    -1.7941 H       
  69 H69            5.0515    -8.3052    -0.1378 H       
  70 H70            2.8539   -10.8639    -1.9367 H       
  71 H71            4.5405   -11.4387    -2.0948 H       
  72 H72            2.3348   -12.4620    -0.2820 H       
  73 H73            3.6727   -13.3675    -1.0651 H       
  74 H74            3.7540   -12.5689     1.6014 H       
  75 H75            5.2261   -12.7493     0.5963 H       
  76 H76            2.2127     1.1190    -0.0594 H       
  77 H77            2.9607     3.7488    -1.4163 H       
  78 H78            4.0932     2.4461    -0.9820 H       
  79 H79            2.8437     2.1638    -2.2178 H       
  80 H80            1.7327     2.5690     1.8939 H       
  81 H81            3.4444     2.6827     1.4192 H       
  82 H82            2.3119     3.9854     0.9848 H       
@<TRIPOS>BOND
   1    1    2 1
   2    1   26 2
   3    1   29 1
   4    2    3 am
   5    2   25 2
   6    3    4 1
   7    3   44 1
   8    4    5 ar
   9    4    9 ar
  10    5    6 ar
  11    5   10 1
  12    6    7 ar
  13    6   45 1
  14    7    8 ar
  15    7   46 1
  16    8    9 ar
  17    8   22 1
  18    9   47 1
  19   10   11 1
  20   10   12 1
  21   11   15 1
  22   11   48 1
  23   11   49 1
  24   12   13 1
  25   12   50 1
  26   12   51 1
  27   13   14 1
  28   13   52 1
  29   13   53 1
  30   14   15 1
  31   14   16 1
  32   15   54 1
  33   15   55 1
  34   16   17 ar
  35   16   18 ar
  36   17   30 1
  37   17   21 ar
  38   18   19 ar
  39   18   56 1
  40   19   20 ar
  41   19   57 1
  42   20   21 ar
  43   20   58 1
  44   21   59 1
  45   22   23 am
  46   22   24 2
  47   23   31 1
  48   23   60 1
  49   26   27 1
  50   26   41 1
  51   27   28 1
  52   28   29 2
  53   28   40 1
  54   30   61 1
  55   30   62 1
  56   30   63 1
  57   31   32 1
  58   31   64 1
  59   31   65 1
  60   32   33 1
  61   32   66 1
  62   32   67 1
  63   33   34 1
  64   33   68 1
  65   33   69 1
  66   34   35 1
  67   34   38 am
  68   35   36 1
  69   35   70 1
  70   35   71 1
  71   36   37 1
  72   36   72 1
  73   36   73 1
  74   37   38 1
  75   37   74 1
  76   37   75 1
  77   38   39 2
  78   41   42 1
  79   41   43 1
  80   41   76 1
  81   42   77 1
  82   42   78 1
  83   42   79 1
  84   43   80 1
  85   43   81 1
  86   43   82 1

#	End of record

