#	Name: ASD02210005
#	Creating user name:	WinNT
#	Creation time:	15. 06. 2019 20:20

#	Modifying user name:	WinNT
#	Modification time:	15. 06. 2019 20:20

#	Program:	/corina/corina34_cracker 3.40 0067  02.08.2006

@<TRIPOS>MOLECULE
ASD02210005
  14   14    0    0    0
SMALL
NO_CHARGES


@<TRIPOS>ATOM
   1 O1            -0.0173     1.4265     0.0099 O.3     
   2 C2             0.0021    -0.0041     0.0020 C.3     
   3 C3             0.7647    -0.4894    -1.2342 C.3     
   4 O4             2.0679     0.1010    -1.2434 O.3     
   5 C5             2.0485     1.5316    -1.2356 C.3     
   6 C6             1.2859     2.0169     0.0006 C.3     
   7 H7             0.4987    -0.3666     0.9020 H       
   8 H8            -1.0198    -0.3821    -0.0287 H       
   9 H9             0.8568    -1.5750    -1.2024 H       
  10 H10            0.2249    -0.1948    -2.1341 H       
  11 H11            3.0704     1.9097    -1.2048 H       
  12 H12            1.5519     1.8942    -2.1356 H       
  13 H13            1.1938     3.1026    -0.0311 H       
  14 H14            1.8257     1.7224     0.9006 H       
@<TRIPOS>BOND
   1    1    2 1
   2    1    6 1
   3    2    3 1
   4    2    7 1
   5    2    8 1
   6    3    4 1
   7    3    9 1
   8    3   10 1
   9    4    5 1
  10    5    6 1
  11    5   11 1
  12    5   12 1
  13    6   13 1
  14    6   14 1

#	End of record

