#	Name: ASD01882999
#	Creating user name:	WinNT
#	Creation time:	15. 06. 2019 19:45

#	Modifying user name:	WinNT
#	Modification time:	15. 06. 2019 19:45

#	Program:	/corina/corina34_cracker 3.40 0067  02.08.2006

@<TRIPOS>MOLECULE
ASD01882999
  48   50    0    0    0
SMALL
NO_CHARGES


@<TRIPOS>ATOM
   1 C1            -0.3883     0.7923    -1.0569 C.2     
   2 C2            -0.2374    -0.5440    -0.6440 C.2     
   3 C3            -1.3939    -1.3050    -0.3801 C.2     
   4 C4            -2.6168    -0.7475    -0.5256 C.2     
   5 N5            -2.7631     0.5424    -0.9247 N.am    
   6 C6            -1.6963     1.3206    -1.1851 C.2     
   7 C7            -4.1100     1.1005    -1.0680 C.3     
   8 C8            -4.5475     1.7243     0.2588 C.3     
   9 C9             0.7578     1.6041    -1.3364 C.1     
  10 N10            1.6670     2.2481    -1.5581 N.1     
  11 O11           -1.8558     2.4758    -1.5409 O.2     
  12 C12           -5.9542     2.3072     0.1091 C.3     
  13 C13            1.1058    -1.1376    -0.4905 C.ar    
  14 C14           -6.3916     2.9309     1.4359 C.3     
  15 C15            1.5883    -2.0391    -1.4461 C.ar    
  16 C16            2.8450    -2.5909    -1.2973 C.ar    
  17 C17            3.6280    -2.2525    -0.2016 C.ar    
  18 C18            3.1511    -1.3570     0.7495 C.ar    
  19 C19            1.9017    -0.7966     0.6065 C.ar    
  20 O20            4.8629    -2.7979    -0.0582 O.3     
  21 C21            5.8660    -2.3163    -0.8345 C.ar    
  22 F22            0.8259    -2.3688    -2.5115 F       
  23 C23            7.1166    -2.9193    -0.7949 C.ar    
  24 C24            8.1314    -2.4182    -1.5918 C.ar    
  25 C25            7.8576    -1.3266    -2.4039 C.ar    
  26 C26            6.5906    -0.7771    -2.3927 C.ar    
  27 N27            5.6421    -1.2802    -1.6261 N.ar    
  28 C28            6.2860     0.4084    -3.2719 C.3     
  29 F29            5.8300    -0.0390    -4.5165 F       
  30 F30            5.2987     1.1949    -2.6687 F       
  31 F31            7.4466     1.1698    -3.4466 F       
  32 H32           -1.3032    -2.3332    -0.0622 H       
  33 H33           -3.4959    -1.3404    -0.3206 H       
  34 H34           -4.1058     1.8650    -1.8450 H       
  35 H35           -4.8048     0.3069    -1.3430 H       
  36 H36           -4.5517     0.9598     1.0358 H       
  37 H37           -3.8527     2.5179     0.5337 H       
  38 H38           -5.9499     3.0716    -0.6679 H       
  39 H39           -6.6489     1.5135    -0.1658 H       
  40 H40           -6.3958     2.1665     2.2129 H       
  41 H41           -5.6968     3.7246     1.7108 H       
  42 H42           -7.3937     3.3462     1.3293 H       
  43 H43            3.2193    -3.2868    -2.0335 H       
  44 H44            3.7639    -1.0973     1.6000 H       
  45 H45            1.5333    -0.1014     1.3463 H       
  46 H46            7.2949    -3.7675    -0.1506 H       
  47 H47            9.1140    -2.8664    -1.5816 H       
  48 H48            8.6271    -0.9111    -3.0375 H       
@<TRIPOS>BOND
   1    1    2 2
   2    1    9 1
   3    1    6 1
   4    2    3 1
   5    2   13 1
   6    3    4 2
   7    3   32 1
   8    4    5 1
   9    4   33 1
  10    5    7 1
  11    5    6 am
  12    6   11 2
  13    7    8 1
  14    7   34 1
  15    7   35 1
  16    8   12 1
  17    8   36 1
  18    8   37 1
  19    9   10 3
  20   12   14 1
  21   12   38 1
  22   12   39 1
  23   13   15 ar
  24   13   19 ar
  25   14   40 1
  26   14   41 1
  27   14   42 1
  28   15   16 ar
  29   15   22 1
  30   16   17 ar
  31   16   43 1
  32   17   18 ar
  33   17   20 1
  34   18   19 ar
  35   18   44 1
  36   19   45 1
  37   20   21 1
  38   21   23 ar
  39   21   27 ar
  40   23   24 ar
  41   23   46 1
  42   24   25 ar
  43   24   47 1
  44   25   26 ar
  45   25   48 1
  46   26   28 1
  47   26   27 ar
  48   28   29 1
  49   28   30 1
  50   28   31 1

#	End of record

