#	Name: ASD01911289
#	Creating user name:	WinNT
#	Creation time:	15. 06. 2019 19:57

#	Modifying user name:	WinNT
#	Modification time:	15. 06. 2019 19:57

#	Program:	/corina/corina34_cracker 3.40 0067  02.08.2006

@<TRIPOS>MOLECULE
ASD01911289
  31   33    0    0    0
SMALL
NO_CHARGES


@<TRIPOS>ATOM
   1 C1            -0.0167     1.3797     0.0096 C.ar    
   2 C2             0.0021    -0.0041     0.0020 C.ar    
   3 C3             1.2058    -0.6866    -0.0132 C.ar    
   4 C4             2.3967     0.0087    -0.0209 C.ar    
   5 C5             2.3858     1.4064    -0.0133 C.ar    
   6 C6             1.1661     2.0888     0.0021 C.ar    
   7 C7             3.6182     2.1357    -0.0207 C.1     
   8 C8             4.6286     2.7335    -0.0268 C.1     
   9 C9             5.8610     3.4627    -0.0342 C.ar    
  10 C10            5.8420     4.8594    -0.0265 C.ar    
  11 C11            7.0331     5.5641    -0.0322 C.ar    
  12 C12            8.2497     4.8578    -0.0386 C.ar    
  13 C13            8.2580     3.4590    -0.0520 C.ar    
  14 C14            7.0802     2.7713    -0.0433 C.ar    
  15 O15            7.0171     6.9177    -0.0376 O.3     
  16 C16            8.1672     7.6188     0.4346 C.3     
  17 C17            9.4138     7.1037    -0.2993 C.3     
  18 C18            9.5121     5.6135    -0.0263 C.2     
  19 O19           10.5768     5.0736     0.1912 O.2     
  20 H20           -0.9600     1.9055     0.0170 H       
  21 H21           -0.9274    -0.5540     0.0083 H       
  22 H22            1.2126    -1.7666    -0.0187 H       
  23 H23            3.3354    -0.5253    -0.0324 H       
  24 H24            1.1499     3.1687     0.0077 H       
  25 H25            4.9002     5.3879    -0.0165 H       
  26 H26            9.1962     2.9241    -0.0651 H       
  27 H27            7.0869     1.6913    -0.0514 H       
  28 H28            8.0471     8.6851     0.2433 H       
  29 H29            8.2807     7.4516     1.5057 H       
  30 H30            9.3128     7.2789    -1.3704 H       
  31 H31           10.3024     7.6096     0.0783 H       
@<TRIPOS>BOND
   1    1    2 ar
   2    1    6 ar
   3    1   20 1
   4    2    3 ar
   5    2   21 1
   6    3    4 ar
   7    3   22 1
   8    4    5 ar
   9    4   23 1
  10    5    6 ar
  11    5    7 1
  12    6   24 1
  13    7    8 3
  14    8    9 1
  15    9   10 ar
  16    9   14 ar
  17   10   11 ar
  18   10   25 1
  19   11   12 ar
  20   11   15 1
  21   12   13 ar
  22   12   18 1
  23   13   14 ar
  24   13   26 1
  25   14   27 1
  26   15   16 1
  27   16   17 1
  28   16   28 1
  29   16   29 1
  30   17   18 1
  31   17   30 1
  32   17   31 1
  33   18   19 2

#	End of record

