#	Name: ASD08830059
#	Creating user name:	WinNT
#	Creation time:	15. 06. 2019 21:19

#	Modifying user name:	WinNT
#	Modification time:	15. 06. 2019 21:19

#	Program:	/corina/corina34_cracker 3.40 0067  02.08.2006

@<TRIPOS>MOLECULE
ASD08830059
  41   43    0    0    0
SMALL
NO_CHARGES


@<TRIPOS>ATOM
   1 C1             0.0078     1.4394     0.3827 C.ar    
   2 C2             0.0407     0.0348     0.5787 C.ar    
   3 C3             1.2047     2.1376     0.1348 C.ar    
   4 C4             2.3834     1.4687     0.0833 C.ar    
   5 C5             2.4309     0.0736     0.2757 C.ar    
   6 C6             1.2675    -0.6423     0.5225 C.ar    
   7 C7             3.7215    -0.6287     0.2141 C.2     
   8 C8             4.9875     0.1435    -0.0540 C.3     
   9 C9             6.1781    -0.8173    -0.0663 C.3     
  10 N10            7.4246    -0.0509    -0.1958 N.3     
  11 O11            3.7670    -1.8293     0.3791 O.2     
  12 C12            7.6496     0.7999     0.9929 C.3     
  13 C13           -1.2242     2.1111     0.4339 C.ar    
  14 C14           -1.1595    -0.6555     0.8260 C.ar    
  15 C15           -2.3339     0.0311     0.8740 C.ar    
  16 C16           -2.3671     1.4089     0.6701 C.ar    
  17 C17            8.3383     2.0872     0.5032 C.3     
  18 C18            8.4577     1.9234    -1.0294 C.3     
  19 C19            7.3603     0.8785    -1.3526 C.3     
  20 C20            7.6820     0.1427    -2.6549 C.3     
  21 H21            1.1844     3.2070    -0.0150 H       
  22 H22            3.2971     2.0120    -0.1078 H       
  23 H23            1.3068    -1.7115     0.6695 H       
  24 H24            4.9119     0.6408    -1.0210 H       
  25 H25            5.1307     0.8894     0.7279 H       
  26 H26            6.1960    -1.3857     0.8636 H       
  27 H27            6.0835    -1.5023    -0.9089 H       
  28 H28            6.6959     1.0439     1.4608 H       
  29 H29            8.2932     0.2818     1.7039 H       
  30 H30           -1.2653     3.1802     0.2870 H       
  31 H31           -1.1494    -1.7249     0.9768 H       
  32 H32           -3.2543    -0.5012     1.0637 H       
  33 H33           -3.3119     1.9302     0.7137 H       
  34 H34            7.7283     2.9578     0.7442 H       
  35 H35            9.3273     2.1814     0.9518 H       
  36 H36            8.2529     2.8669    -1.5353 H       
  37 H37            9.4430     1.5446    -1.3012 H       
  38 H38            6.3812     1.3541    -1.4100 H       
  39 H39            8.6508    -0.3487    -2.5648 H       
  40 H40            6.9124    -0.6041    -2.8500 H       
  41 H41            7.7121     0.8569    -3.4778 H       
@<TRIPOS>BOND
   1    1    2 ar
   2    1    3 ar
   3    1   13 ar
   4    2   14 ar
   5    2    6 ar
   6    3    4 ar
   7    3   21 1
   8    4    5 ar
   9    4   22 1
  10    5    6 ar
  11    5    7 1
  12    6   23 1
  13    7    8 1
  14    7   11 2
  15    8    9 1
  16    8   24 1
  17    8   25 1
  18    9   10 1
  19    9   26 1
  20    9   27 1
  21   10   12 1
  22   10   19 1
  23   12   17 1
  24   12   28 1
  25   12   29 1
  26   13   16 ar
  27   13   30 1
  28   14   15 ar
  29   14   31 1
  30   15   16 ar
  31   15   32 1
  32   16   33 1
  33   17   18 1
  34   17   34 1
  35   17   35 1
  36   18   19 1
  37   18   36 1
  38   18   37 1
  39   19   20 1
  40   19   38 1
  41   20   39 1
  42   20   40 1
  43   20   41 1

#	End of record

