#	Name: ASD03332010
#	Creating user name:	WinNT
#	Creation time:	15. 06. 2019 20:40

#	Modifying user name:	WinNT
#	Modification time:	15. 06. 2019 20:40

#	Program:	/corina/corina34_cracker 3.40 0067  02.08.2006

@<TRIPOS>MOLECULE
ASD03332010
  63   64    0    0    0
SMALL
NO_CHARGES


@<TRIPOS>ATOM
   1 C1            -0.1135     2.1651     1.0704 C.2     
   2 N2            -0.3313     0.8828     1.4459 N.pl3   
   3 C3             0.8350     0.1963     1.2619 C.2     
   4 N4             1.7434     1.0304     0.8082 N.2     
   5 C5             1.1896     2.2554     0.6820 C.2     
   6 C6             1.8725     3.4727     0.2092 C.2     
   7 O7             1.2634     4.5230     0.1383 O.2     
   8 N8             3.1720     3.4220    -0.1447 N.am    
   9 C9             3.8509     4.6322    -0.6147 C.3     
  10 C10            3.6010     4.8074    -2.1140 C.3     
  11 C11            4.2289     3.6385    -2.8757 C.3     
  12 C12            5.3315     4.5073    -0.3635 C.2     
  13 C13            2.0945     4.8389    -2.3797 C.3     
  14 C14            4.2296     6.1201    -2.5857 C.3     
  15 O15            5.8110     3.4277    -0.0888 O.2     
  16 N16            6.1228     5.5953    -0.4440 N.am    
  17 C17            7.5717     5.4615    -0.2732 C.3     
  18 C18           -1.5931     0.3522     1.9693 C.3     
  19 C19           -2.7454     0.8237     1.0769 C.3     
  20 C20           -3.2482     2.1808     1.5590 C.3     
  21 N21           -2.1509     2.9857     2.0998 N.3     
  22 C22           -1.1389     3.2693     1.0715 C.3     
  23 C23           -2.6554     4.2286     2.6989 C.3     
  24 C24            1.0401    -1.2378     1.5274 C.2     
  25 C25            1.3799    -2.0548     0.5365 C.2     
  26 C26            0.8644    -1.7784     2.9231 C.3     
  27 C27            1.4319    -1.5413    -0.8793 C.3     
  28 C28            1.7133    -3.4952     0.8283 C.3     
  29 H29            3.6577     2.5843    -0.0881 H       
  30 H30            3.4630     5.4980    -0.0781 H       
  31 H31            3.7811     2.7033    -2.5396 H       
  32 H32            4.0509     3.7634    -3.9438 H       
  33 H33            5.3021     3.6161    -2.6864 H       
  34 H34            1.6472     5.6716    -1.8370 H       
  35 H35            1.9165     4.9638    -3.4478 H       
  36 H36            1.6467     3.9037    -2.0436 H       
  37 H37            5.2750     6.1532    -2.2791 H       
  38 H38            4.1675     6.1829    -3.6722 H       
  39 H39            3.6941     6.9595    -2.1421 H       
  40 H40            5.7331     6.4669    -0.6151 H       
  41 H41            7.7849     5.0534     0.7148 H       
  42 H42            7.9672     4.7912    -1.0363 H       
  43 H43            8.0410     6.4405    -0.3709 H       
  44 H44           -1.5569    -0.7372     1.9722 H       
  45 H45           -1.7473     0.7151     2.9855 H       
  46 H46           -2.3949     0.9113     0.0485 H       
  47 H47           -3.5584     0.0990     1.1215 H       
  48 H48           -3.7030     2.7116     0.7226 H       
  49 H49           -3.9977     2.0294     2.3358 H       
  50 H50           -0.6515     4.2190     1.2921 H       
  51 H51           -1.6179     3.3228     0.0939 H       
  52 H52           -3.3444     3.9881     3.5085 H       
  53 H53           -1.8199     4.8073     3.0927 H       
  54 H54           -3.1761     4.8125     1.9399 H       
  55 H55            0.5016    -0.9853     3.5769 H       
  56 H56            0.1430    -2.5954     2.9082 H       
  57 H57            1.8215    -2.1455     3.2937 H       
  58 H58            2.4440    -1.2071    -1.1076 H       
  59 H59            1.1492    -2.3392    -1.5659 H       
  60 H60            0.7402    -0.7060    -0.9885 H       
  61 H61            1.7126    -3.6572     1.9062 H       
  62 H62            0.9692    -4.1418     0.3632 H       
  63 H63            2.6993    -3.7285     0.4265 H       
@<TRIPOS>BOND
   1    1    2 1
   2    1    5 2
   3    1   22 1
   4    2    3 1
   5    2   18 1
   6    3    4 2
   7    3   24 1
   8    4    5 1
   9    5    6 1
  10    6    7 2
  11    6    8 am
  12    8    9 1
  13    8   29 1
  14    9   10 1
  15    9   12 1
  16    9   30 1
  17   10   11 1
  18   10   13 1
  19   10   14 1
  20   11   31 1
  21   11   32 1
  22   11   33 1
  23   12   15 2
  24   12   16 am
  25   13   34 1
  26   13   35 1
  27   13   36 1
  28   14   37 1
  29   14   38 1
  30   14   39 1
  31   16   17 1
  32   16   40 1
  33   17   41 1
  34   17   42 1
  35   17   43 1
  36   18   19 1
  37   18   44 1
  38   18   45 1
  39   19   20 1
  40   19   46 1
  41   19   47 1
  42   20   21 1
  43   20   48 1
  44   20   49 1
  45   21   22 1
  46   21   23 1
  47   22   50 1
  48   22   51 1
  49   23   52 1
  50   23   53 1
  51   23   54 1
  52   24   25 2
  53   24   26 1
  54   25   27 1
  55   25   28 1
  56   26   55 1
  57   26   56 1
  58   26   57 1
  59   27   58 1
  60   27   59 1
  61   27   60 1
  62   28   61 1
  63   28   62 1
  64   28   63 1

#	End of record

