#	Name: ASD01882423
#	Creating user name:	WinNT
#	Creation time:	15. 06. 2019 19:44

#	Modifying user name:	WinNT
#	Modification time:	15. 06. 2019 19:44

#	Program:	/corina/corina34_cracker 3.40 0067  02.08.2006

@<TRIPOS>MOLECULE
ASD01882423
  52   56    0    0    0
SMALL
NO_CHARGES


@<TRIPOS>ATOM
   1 C1            -0.0170     1.4040     0.0098 C.2     
   2 C2             0.0021    -0.0041     0.0020 C.2     
   3 C3             1.1979    -0.6520    -0.0129 C.2     
   4 C4             2.3924     0.0887    -0.0203 C.2     
   5 C5             2.3586     1.4378    -0.0123 C.2     
   6 N6             1.1666     2.1005     0.0022 N.pl3   
   7 N7            -0.4824     3.4837     0.0230 N.2     
   8 N8            -0.9895     2.3010     0.0186 N.2     
   9 C9             0.8239     3.4172     0.0126 C.2     
  10 C10           -1.2874    -0.7840     0.0106 C.3     
  11 N11            2.7927    -4.5941    -0.0524 N.3     
  12 C12            2.0613    -4.1695    -1.2529 C.3     
  13 C13            1.9661    -2.6424    -1.2803 C.3     
  14 C14            1.2420    -2.1583    -0.0209 C.3     
  15 C15            1.9972    -2.6547     1.2151 C.3     
  16 C16            2.0916    -4.1815     1.1702 C.3     
  17 C17            3.0132    -5.9765    -0.0620 C.ar    
  18 C18            4.3114    -6.4751    -0.0364 C.ar    
  19 C19            4.5258    -7.8408    -0.0455 C.ar    
  20 C20            3.4490    -8.7112    -0.0800 C.ar    
  21 C21            2.1566    -8.2162    -0.1054 C.ar    
  22 C22            1.9369    -6.8517    -0.0912 C.ar    
  23 F23            3.6604   -10.0455    -0.0893 F       
  24 F24            5.3616    -5.6258    -0.0032 F       
  25 C25            1.7755     4.5857     0.0099 C.3     
  26 C26            2.0839     4.9889    -1.4335 C.3     
  27 C27            2.9438     6.2357    -1.6503 C.3     
  28 C28            3.5299     4.8471    -1.9130 C.3     
  29 H29            3.3425    -0.4246    -0.0322 H       
  30 H30            3.2825     1.9970    -0.0178 H       
  31 H31           -2.1300    -0.0927     0.0227 H       
  32 H32           -1.3412    -1.4069    -0.8822 H       
  33 H33           -1.3236    -1.4164     0.8976 H       
  34 H34            2.5890    -4.5165    -2.1413 H       
  35 H35            1.0582    -4.5958    -1.2367 H       
  36 H36            2.9686    -2.2157    -1.3103 H       
  37 H37            1.4096    -2.3283    -2.1634 H       
  38 H38            0.2258    -2.5525    -0.0107 H       
  39 H39            3.0003    -2.2283     1.2243 H       
  40 H40            1.4631    -2.3495     2.1149 H       
  41 H41            1.0884    -4.6077     1.1750 H       
  42 H42            2.6413    -4.5372     2.0417 H       
  43 H43            5.5334    -8.2292    -0.0261 H       
  44 H44            1.3187    -8.8971    -0.1323 H       
  45 H45            0.9279    -6.4668    -0.1069 H       
  46 H46            1.3198     5.4266     0.5326 H       
  47 H47            2.6999     4.3027     0.5134 H       
  48 H48            1.2921     4.7918    -2.1561 H       
  49 H49            2.7179     6.8586    -2.5157 H       
  50 H50            3.2898     6.7687    -0.7646 H       
  51 H51            4.2615     4.4665    -1.2002 H       
  52 H52            3.6896     4.5564    -2.9513 H       
@<TRIPOS>BOND
   1    1    2 1
   2    1    6 1
   3    1    8 2
   4    2    3 2
   5    2   10 1
   6    3    4 1
   7    3   14 1
   8    4    5 2
   9    4   29 1
  10    5    6 1
  11    5   30 1
  12    6    9 1
  13    7    8 1
  14    7    9 2
  15    9   25 1
  16   10   31 1
  17   10   32 1
  18   10   33 1
  19   11   12 1
  20   11   16 1
  21   11   17 1
  22   12   13 1
  23   12   34 1
  24   12   35 1
  25   13   14 1
  26   13   36 1
  27   13   37 1
  28   14   15 1
  29   14   38 1
  30   15   16 1
  31   15   39 1
  32   15   40 1
  33   16   41 1
  34   16   42 1
  35   17   18 ar
  36   17   22 ar
  37   18   19 ar
  38   18   24 1
  39   19   20 ar
  40   19   43 1
  41   20   21 ar
  42   20   23 1
  43   21   22 ar
  44   21   44 1
  45   22   45 1
  46   25   26 1
  47   25   46 1
  48   25   47 1
  49   26   27 1
  50   26   28 1
  51   26   48 1
  52   27   28 1
  53   27   49 1
  54   27   50 1
  55   28   51 1
  56   28   52 1

#	End of record

