#	Name: ASD03082053
#	Creating user name:	WinNT
#	Creation time:	15. 06. 2019 20:27

#	Modifying user name:	WinNT
#	Modification time:	15. 06. 2019 20:27

#	Program:	/corina/corina34_cracker 3.40 0067  02.08.2006

@<TRIPOS>MOLECULE
ASD03082053
  86   91    0    0    0
SMALL
NO_CHARGES


@<TRIPOS>ATOM
   1 C1             1.3411     2.2517     1.1299 C.3     
   2 C2             0.6299     0.9007     1.0042 C.3     
   3 N3             0.7593     0.4250    -0.3799 N.am    
   4 C4             2.1001     0.3372    -0.9743 C.3     
   5 C5             2.7948     1.6946    -0.8265 C.3     
   6 C6             2.7862     2.1098     0.6465 C.3     
   7 C7            -0.3312     0.0755    -1.0906 C.2     
   8 C8            -1.6880     0.0699    -0.4350 C.3     
   9 O9            -0.2204    -0.2346    -2.2579 O.2     
  10 C10           -2.7549    -0.2821    -1.4736 C.3     
  11 C11           -4.1208    -0.1800    -0.8452 C.ar    
  12 C12           -4.8107     1.0173    -0.8817 C.ar    
  13 C13           -6.0636     1.1110    -0.3052 C.ar    
  14 C14           -6.6268     0.0072     0.3074 C.ar    
  15 C15           -5.9373    -1.1904     0.3432 C.ar    
  16 C16           -4.6862    -1.2852    -0.2371 C.ar    
  17 C17            4.2396     1.5849    -1.3177 C.3     
  18 N18            4.2465     1.2900    -2.7568 N.3     
  19 C19            3.7293     2.4272    -3.5297 C.3     
  20 C20            5.5919     0.9135    -3.2106 C.3     
  21 C21            3.3398     1.9615    -4.9090 C.ar    
  22 C22            3.3533     0.6154    -5.2137 C.ar    
  23 C23            2.9960     0.1866    -6.4793 C.ar    
  24 C24            2.6231     1.1030    -7.4460 C.ar    
  25 C25            2.6061     2.4515    -7.1521 C.ar    
  26 C26            2.9599     2.8886    -5.8773 C.ar    
  27 C27            5.8980    -0.4925    -2.7627 C.ar    
  28 C28            7.1960    -0.9894    -2.8612 C.ar    
  29 C29            7.4720    -2.2901    -2.4448 C.ar    
  30 C30            6.4596    -3.0790    -1.9373 C.ar    
  31 C31            5.1728    -2.5807    -1.8422 C.ar    
  32 C32            4.8943    -1.2883    -2.2488 C.ar    
  33 C33            8.2803    -0.1367    -3.4081 C.ar    
  34 C34            9.4353     0.0897    -2.6623 C.ar    
  35 C35           10.4409     0.8833    -3.1761 C.ar    
  36 C36           10.3035     1.4538    -4.4286 C.ar    
  37 C37            9.1591     1.2324    -5.1733 C.ar    
  38 C38            8.1497     0.4358    -4.6717 C.ar    
  39 C39            2.9435     4.3371    -5.5555 C.ar    
  40 C40            3.7025     5.2296    -6.3097 C.ar    
  41 C41            3.6832     6.5759    -6.0063 C.ar    
  42 C42            2.9125     7.0396    -4.9555 C.ar    
  43 C43            2.1571     6.1581    -4.2035 C.ar    
  44 C44            2.1645     4.8105    -4.5017 C.ar    
  45 H45            0.8245     2.9928     0.5199 H       
  46 H46            1.3357     2.5701     2.1723 H       
  47 H47            1.0893     0.1814     1.6822 H       
  48 H48           -0.4248     1.0184     1.2531 H       
  49 H49            2.6794    -0.4279    -0.4576 H       
  50 H50            2.0155     0.0832    -2.0309 H       
  51 H51            2.2646     2.4410    -1.4180 H       
  52 H52            3.3017     3.0637     0.7579 H       
  53 H53            3.2950     1.3508     1.2407 H       
  54 H54           -1.7018    -0.6701     0.3652 H       
  55 H55           -1.8956     1.0566    -0.0210 H       
  56 H56           -2.6881     0.4109    -2.3123 H       
  57 H57           -2.5938    -1.2997    -1.8294 H       
  58 H58           -4.3707     1.8797    -1.3603 H       
  59 H59           -6.6023     2.0466    -0.3331 H       
  60 H60           -7.6054     0.0806     0.7585 H       
  61 H61           -6.3772    -2.0527     0.8221 H       
  62 H62           -4.1475    -2.2209    -0.2092 H       
  63 H63            4.7572     2.5271    -1.1374 H       
  64 H64            4.7463     0.7834    -0.7802 H       
  65 H65            2.8559     2.8416    -3.0260 H       
  66 H66            4.5005     3.1933    -3.6091 H       
  67 H67            5.6364     0.9661    -4.2984 H       
  68 H68            6.3244     1.5985    -2.7835 H       
  69 H69            3.6436    -0.1044    -4.4627 H       
  70 H70            3.0086    -0.8675    -6.7137 H       
  71 H71            2.3451     0.7628    -8.4325 H       
  72 H72            2.3155     3.1662    -7.9079 H       
  73 H73            8.4763    -2.6804    -2.5193 H       
  74 H74            6.6724    -4.0874    -1.6143 H       
  75 H75            4.3834    -3.2016    -1.4448 H       
  76 H76            3.8878    -0.9041    -2.1720 H       
  77 H77            9.5433    -0.3546    -1.6839 H       
  78 H78           11.3366     1.0595    -2.5989 H       
  79 H79           11.0925     2.0747    -4.8265 H       
  80 H80            9.0568     1.6805    -6.1506 H       
  81 H81            7.2567     0.2633    -5.2541 H       
  82 H82            4.3052     4.8685    -7.1300 H       
  83 H83            4.2711     7.2685    -6.5903 H       
  84 H84            2.9008     8.0938    -4.7211 H       
  85 H85            1.5574     6.5254    -3.3838 H       
  86 H86            1.5708     4.1236    -3.9167 H       
@<TRIPOS>BOND
   1    1    2 1
   2    1    6 1
   3    1   45 1
   4    1   46 1
   5    2    3 1
   6    2   47 1
   7    2   48 1
   8    3    4 1
   9    3    7 am
  10    4    5 1
  11    4   49 1
  12    4   50 1
  13    5    6 1
  14    5   17 1
  15    5   51 1
  16    6   52 1
  17    6   53 1
  18    7    8 1
  19    7    9 2
  20    8   10 1
  21    8   54 1
  22    8   55 1
  23   10   11 1
  24   10   56 1
  25   10   57 1
  26   11   12 ar
  27   11   16 ar
  28   12   13 ar
  29   12   58 1
  30   13   14 ar
  31   13   59 1
  32   14   15 ar
  33   14   60 1
  34   15   16 ar
  35   15   61 1
  36   16   62 1
  37   17   18 1
  38   17   63 1
  39   17   64 1
  40   18   19 1
  41   18   20 1
  42   19   21 1
  43   19   65 1
  44   19   66 1
  45   20   27 1
  46   20   67 1
  47   20   68 1
  48   21   22 ar
  49   21   26 ar
  50   22   23 ar
  51   22   69 1
  52   23   24 ar
  53   23   70 1
  54   24   25 ar
  55   24   71 1
  56   25   26 ar
  57   25   72 1
  58   26   39 1
  59   27   28 ar
  60   27   32 ar
  61   28   29 ar
  62   28   33 1
  63   29   30 ar
  64   29   73 1
  65   30   31 ar
  66   30   74 1
  67   31   32 ar
  68   31   75 1
  69   32   76 1
  70   33   34 ar
  71   33   38 ar
  72   34   35 ar
  73   34   77 1
  74   35   36 ar
  75   35   78 1
  76   36   37 ar
  77   36   79 1
  78   37   38 ar
  79   37   80 1
  80   38   81 1
  81   39   40 ar
  82   39   44 ar
  83   40   41 ar
  84   40   82 1
  85   41   42 ar
  86   41   83 1
  87   42   43 ar
  88   42   84 1
  89   43   44 ar
  90   43   85 1
  91   44   86 1

#	End of record

