#	Name: ASD01913335
#	Creating user name:	WinNT
#	Creation time:	15. 06. 2019 20:01

#	Modifying user name:	WinNT
#	Modification time:	15. 06. 2019 20:01

#	Program:	/corina/corina34_cracker 3.40 0067  02.08.2006

@<TRIPOS>MOLECULE
ASD01913335
  32   34    0    0    0
SMALL
NO_CHARGES


@<TRIPOS>ATOM
   1 C1            -0.0166     1.3765     0.0096 C.2     
   2 C2             0.0021    -0.0041     0.0020 C.2     
   3 C3             1.2500    -0.6727    -0.0135 C.2     
   4 N4             2.3635     0.0159    -0.0200 N.2     
   5 C5             2.3514     1.3566    -0.0127 C.2     
   6 N6             1.1685     2.0507     0.0019 N.pl3   
   7 C7            -1.2215    -0.7480     0.0102 C.1     
   8 C8            -2.2246    -1.3579     0.0169 C.1     
   9 C9            -3.4482    -2.1018     0.0250 C.ar    
  10 C10           -4.6030    -4.2087     0.0252 C.ar    
  11 C11           -5.8501    -2.1573     0.0429 C.ar    
  12 C12           -4.6757    -1.4341     0.0350 C.ar    
  13 C13            3.3711     2.2994    -0.0169 C.2     
  14 C14            2.7831     3.5557    -0.0048 C.2     
  15 N15            1.4768     3.4160     0.0065 N.2     
  16 C16            3.5231     4.8685    -0.0040 C.3     
  17 C17           -3.4205    -3.4989     0.0173 C.ar    
  18 C18           -5.8148    -3.5406     0.0409 C.ar    
  19 C19           -7.1025    -4.3235     0.0490 C.3     
  20 H20           -0.9539     1.9131     0.0170 H       
  21 H21            1.2833    -1.7522    -0.0196 H       
  22 H22           -4.5832    -5.2885     0.0238 H       
  23 H23           -6.7996    -1.6427     0.0506 H       
  24 H24           -4.7048    -0.3545     0.0369 H       
  25 H25            4.4310     2.0918    -0.0275 H       
  26 H26            3.6924     5.1907    -1.0315 H       
  27 H27            2.9308     5.6192     0.5192 H       
  28 H28            4.4813     4.7452     0.5007 H       
  29 H29           -2.4755    -4.0216     0.0047 H       
  30 H30           -7.4029    -4.5181     1.0785 H       
  31 H31           -7.8802    -3.7489    -0.4540 H       
  32 H32           -6.9557    -5.2698    -0.4717 H       
@<TRIPOS>BOND
   1    1    2 2
   2    1    6 1
   3    1   20 1
   4    2    3 1
   5    2    7 1
   6    3    4 2
   7    3   21 1
   8    4    5 1
   9    5    6 1
  10    5   13 2
  11    6   15 1
  12    7    8 3
  13    8    9 1
  14    9   17 ar
  15    9   12 ar
  16   10   18 ar
  17   10   17 ar
  18   10   22 1
  19   11   12 ar
  20   11   18 ar
  21   11   23 1
  22   12   24 1
  23   13   14 1
  24   13   25 1
  25   14   15 2
  26   14   16 1
  27   16   26 1
  28   16   27 1
  29   16   28 1
  30   17   29 1
  31   18   19 1
  32   19   30 1
  33   19   31 1
  34   19   32 1

#	End of record

