#	Name: ASD05313135
#	Creating user name:	WinNT
#	Creation time:	15. 06. 2019 20:58

#	Modifying user name:	WinNT
#	Modification time:	15. 06. 2019 20:58

#	Program:	/corina/corina34_cracker 3.40 0067  02.08.2006

@<TRIPOS>MOLECULE
ASD05313135
  39   42    0    0    0
SMALL
NO_CHARGES


@<TRIPOS>ATOM
   1 C1            -0.1256     0.9339     1.1743 C.2     
   2 C2             0.1204    -0.5198     0.8485 C.3     
   3 N3             0.8665     1.8638     1.2743 N.pl3   
   4 N4             1.5276    -0.6316     0.4198 N.am    
   5 C5             2.5476     0.0959     1.1899 C.3     
   6 C6             2.2906     1.6032     1.0727 C.3     
   7 N7            -1.0406     2.7811     1.6559 N.2     
   8 N8            -1.2523     1.5336     1.4111 N.2     
   9 C9             0.2502     3.0366     1.5862 C.2     
  10 C10            0.9037     4.3451     1.8070 C.ar    
  11 C11            0.5602     5.1222     2.9150 C.ar    
  12 C12            1.1750     6.3437     3.1149 C.ar    
  13 C13            2.1288     6.7958     2.2191 C.ar    
  14 C14            2.4723     6.0294     1.1200 C.ar    
  15 C15            1.8700     4.8053     0.9123 C.ar    
  16 Cl16           0.7500     7.3129     4.4910 Cl      
  17 Cl17          -0.6362     4.5558     4.0382 Cl      
  18 C18            1.8690    -1.3802    -0.6478 C.2     
  19 O19            3.0174    -1.3818    -1.0468 O.2     
  20 C20            0.8483    -2.1982    -1.3327 C.ar    
  21 C21            0.7759    -2.2056    -2.7288 C.ar    
  22 C22           -0.1801    -2.9726    -3.3628 C.ar    
  23 C23           -1.0667    -3.7341    -2.6177 C.ar    
  24 C24           -0.9991    -3.7297    -1.2326 C.ar    
  25 C25           -0.0449    -2.9720    -0.5885 C.ar    
  26 F26           -2.0008    -4.4833    -3.2434 F       
  27 Cl27           1.8856    -1.2516    -3.6627 Cl      
  28 H28           -0.0488    -1.1334     1.7333 H       
  29 H29           -0.5406    -0.8375     0.0421 H       
  30 H30            2.4944    -0.2022     2.2370 H       
  31 H31            3.5365    -0.1364     0.7946 H       
  32 H32            2.5873     1.9478     0.0820 H       
  33 H33            2.8684     2.1311     1.8313 H       
  34 H34            2.6065     7.7511     2.3789 H       
  35 H35            3.2169     6.3881     0.4249 H       
  36 H36            2.1430     4.2066     0.0559 H       
  37 H37           -0.2378    -2.9793    -4.4412 H       
  38 H38           -1.6932    -4.3246    -0.6575 H       
  39 H39            0.0094    -2.9736     0.4902 H       
@<TRIPOS>BOND
   1    1    2 1
   2    1    3 1
   3    1    8 2
   4    2    4 1
   5    2   28 1
   6    2   29 1
   7    3    6 1
   8    3    9 1
   9    4    5 1
  10    4   18 am
  11    5    6 1
  12    5   30 1
  13    5   31 1
  14    6   32 1
  15    6   33 1
  16    7    8 1
  17    7    9 2
  18    9   10 1
  19   10   11 ar
  20   10   15 ar
  21   11   12 ar
  22   11   17 1
  23   12   13 ar
  24   12   16 1
  25   13   14 ar
  26   13   34 1
  27   14   15 ar
  28   14   35 1
  29   15   36 1
  30   18   19 2
  31   18   20 1
  32   20   21 ar
  33   20   25 ar
  34   21   22 ar
  35   21   27 1
  36   22   23 ar
  37   22   37 1
  38   23   24 ar
  39   23   26 1
  40   24   25 ar
  41   24   38 1
  42   25   39 1

#	End of record

