#	Name: ASD00450037
#	Creating user name:	WinNT
#	Creation time:	15. 06. 2019 18:36

#	Modifying user name:	WinNT
#	Modification time:	15. 06. 2019 18:36

#	Program:	/corina/corina34_cracker 3.40 0067  02.08.2006

@<TRIPOS>MOLECULE
ASD00450037
  46   48    0    0    0
SMALL
NO_CHARGES


@<TRIPOS>ATOM
   1 C1            -0.1666     1.2410     0.0849 C.ar    
   2 C2            -0.4902    -0.1194    -0.0390 C.ar    
   3 C3             0.4850    -1.0270    -0.4138 C.ar    
   4 C4             1.7787    -0.5978    -0.6666 C.ar    
   5 C5             2.1099     0.7408    -0.5474 C.ar    
   6 C6             1.1473     1.6671    -0.1738 C.ar    
   7 C7            -1.1967     2.2141     0.4767 C.2     
   8 O8            -1.3792     2.4665     1.6527 O.2     
   9 N9            -1.9388     2.8266    -0.4671 N.am    
  10 N10            1.4808     3.0105    -0.0554 N.pl3   
  11 C11            2.7929     3.3803     0.2592 C.ar    
  12 C12            3.2451     4.6630    -0.0340 C.ar    
  13 C13            3.6447     2.4703     0.8698 C.ar    
  14 C14            4.9400     2.8384     1.1799 C.ar    
  15 C15            5.3892     4.1121     0.8828 C.ar    
  16 C16            4.5421     5.0246     0.2789 C.ar    
  17 F17            2.7229    -1.4925    -1.0315 F       
  18 F18            2.4180     5.5536    -0.6240 F       
  19 I19            7.3541     4.6641     1.3555 I       
  20 O20           -1.7548    -0.5431     0.2085 O.3     
  21 C21           -1.9934    -1.8808     0.1957 C.ar    
  22 C22           -1.9599    -2.6025     1.3786 C.ar    
  23 C23           -2.2045    -3.9686     1.3621 C.ar    
  24 C24           -2.4820    -4.6082     0.1608 C.ar    
  25 C25           -2.2765    -2.5245    -1.0013 C.ar    
  26 C26           -2.5146    -3.8854    -1.0163 C.ar    
  27 N27           -2.1711    -4.7007     2.5541 N.am    
  28 C28           -2.6418    -4.1554     3.6932 C.2     
  29 C29           -2.6889    -4.9745     4.9573 C.3     
  30 O30           -3.0274    -3.0055     3.7009 O.2     
  31 H31            0.2373    -2.0738    -0.5095 H       
  32 H32            3.1208     1.0651    -0.7458 H       
  33 H33           -1.7932     2.6254    -1.4047 H       
  34 H34           -2.6184     3.4687    -0.2086 H       
  35 H35            0.8041     3.6920    -0.1908 H       
  36 H36            3.2953     1.4753     1.1027 H       
  37 H37            5.6026     2.1303     1.6553 H       
  38 H38            4.8946     6.0199     0.0519 H       
  39 H39           -1.7435    -2.1029     2.3113 H       
  40 H40           -2.6721    -5.6712     0.1468 H       
  41 H41           -2.3070    -1.9615    -1.9224 H       
  42 H42           -2.7302    -4.3846    -1.9495 H       
  43 H43           -1.8092    -5.6007     2.5605 H       
  44 H44           -2.3044    -5.9746     4.7568 H       
  45 H45           -2.0773    -4.4969     5.7227 H       
  46 H46           -3.7190    -5.0446     5.3066 H       
@<TRIPOS>BOND
   1    1    2 ar
   2    1    6 ar
   3    1    7 1
   4    2    3 ar
   5    2   20 1
   6    3    4 ar
   7    3   31 1
   8    4    5 ar
   9    4   17 1
  10    5    6 ar
  11    5   32 1
  12    6   10 1
  13    7    8 2
  14    7    9 am
  15    9   33 1
  16    9   34 1
  17   10   11 1
  18   10   35 1
  19   11   13 ar
  20   11   12 ar
  21   12   16 ar
  22   12   18 1
  23   13   14 ar
  24   13   36 1
  25   14   15 ar
  26   14   37 1
  27   15   16 ar
  28   15   19 1
  29   16   38 1
  30   20   21 1
  31   21   22 ar
  32   21   25 ar
  33   22   23 ar
  34   22   39 1
  35   23   24 ar
  36   23   27 1
  37   24   26 ar
  38   24   40 1
  39   25   26 ar
  40   25   41 1
  41   26   42 1
  42   27   28 am
  43   27   43 1
  44   28   29 1
  45   28   30 2
  46   29   44 1
  47   29   45 1
  48   29   46 1

#	End of record

