#	Name: ASD01881670
#	Creating user name:	WinNT
#	Creation time:	15. 06. 2019 19:43

#	Modifying user name:	WinNT
#	Modification time:	15. 06. 2019 19:43

#	Program:	/corina/corina34_cracker 3.40 0067  02.08.2006

@<TRIPOS>MOLECULE
ASD01881670
  42   44    0    0    0
SMALL
NO_CHARGES


@<TRIPOS>ATOM
   1 C1            -0.0184     1.5028     0.0103 C.3     
   2 C2             0.0021    -0.0041     0.0020 C.2     
   3 C3            -1.2926    -0.7753     0.0102 C.3     
   4 C4            -0.9927    -2.2755    -0.0007 C.3     
   5 O5             1.0559    -0.5936    -0.0112 O.2     
   6 C6            -2.0879    -0.4233     1.2690 C.3     
   7 C7            -2.1118    -0.4099    -1.2293 C.3     
   8 O8             1.3223     1.9974     0.0002 O.3     
   9 N9             2.2403     7.3975     0.0199 N.pl3   
  10 N10            3.6406     7.3162     0.0067 N.2     
  11 N11            3.9976     6.0804    -0.0028 N.2     
  12 C12            2.9135     5.2794     0.0030 C.ar    
  13 C13            1.7741     6.1026     0.0175 C.ar    
  14 C14            2.7519     3.8871    -0.0033 C.ar    
  15 C15            1.4821     3.3478     0.0059 C.ar    
  16 C16            0.3627     4.1764     0.0206 C.ar    
  17 C17            0.5048     5.5355     0.0255 C.ar    
  18 C18            1.4331     8.6199     0.0388 C.3     
  19 C19            1.1389     9.0591    -1.3969 C.3     
  20 C20            0.2061    10.2560    -1.5925 C.3     
  21 C21            1.7062    10.4043    -1.8545 C.3     
  22 Br22           4.2659     2.7543    -0.0235 Br      
  23 H23           -0.5455     1.8639    -0.8728 H       
  24 H24           -0.5286     1.8543     0.9071 H       
  25 H25           -0.4091    -2.5358     0.8824 H       
  26 H26           -1.9291    -2.8333     0.0053 H       
  27 H27           -0.4261    -2.5263    -0.8975 H       
  28 H28           -2.3016     0.6455     1.2768 H       
  29 H29           -3.0243    -0.9811     1.2750 H       
  30 H30           -1.5043    -0.6836     2.1521 H       
  31 H31           -1.5452    -0.6606    -2.1261 H       
  32 H32           -3.0482    -0.9677    -1.2233 H       
  33 H33           -2.3254     0.6589    -1.2215 H       
  34 H34           -0.6257     3.7412     0.0273 H       
  35 H35           -0.3695     6.1695     0.0367 H       
  36 H36            0.4950     8.4278     0.5595 H       
  37 H37            1.9803     9.4086     0.5551 H       
  38 H38            1.0892     8.2568    -2.1331 H       
  39 H39           -0.4569    10.2414    -2.4575 H       
  40 H40           -0.1979    10.7306    -0.6982 H       
  41 H41            2.2891    10.9764    -1.1327 H       
  42 H42            2.0301    10.4872    -2.8920 H       
@<TRIPOS>BOND
   1    1    2 1
   2    1    8 1
   3    1   23 1
   4    1   24 1
   5    2    3 1
   6    2    5 2
   7    3    4 1
   8    3    6 1
   9    3    7 1
  10    4   25 1
  11    4   26 1
  12    4   27 1
  13    6   28 1
  14    6   29 1
  15    6   30 1
  16    7   31 1
  17    7   32 1
  18    7   33 1
  19    8   15 1
  20    9   10 1
  21    9   13 1
  22    9   18 1
  23   10   11 2
  24   11   12 1
  25   12   13 ar
  26   12   14 ar
  27   13   17 ar
  28   14   15 ar
  29   14   22 1
  30   15   16 ar
  31   16   17 ar
  32   16   34 1
  33   17   35 1
  34   18   19 1
  35   18   36 1
  36   18   37 1
  37   19   20 1
  38   19   21 1
  39   19   38 1
  40   20   21 1
  41   20   39 1
  42   20   40 1
  43   21   41 1
  44   21   42 1

#	End of record

