#	Name: ASD07930884
#	Creating user name:	WinNT
#	Creation time:	15. 06. 2019 21:13

#	Modifying user name:	WinNT
#	Modification time:	15. 06. 2019 21:13

#	Program:	/corina/corina34_cracker 3.40 0067  02.08.2006

@<TRIPOS>MOLECULE
ASD07930884
  57   61    0    0    0
SMALL
NO_CHARGES


@<TRIPOS>ATOM
   1 C1            -0.0184     1.5028     0.0103 C.2     
   2 C2             0.0021    -0.0041     0.0020 C.3     
   3 O3             1.0197     2.1211     0.0037 O.2     
   4 O4            -1.1898     2.1580     0.0194 O.3     
   5 C5            -1.1335     3.6089     0.0270 C.3     
   6 C6            -2.3654     4.1709    -0.6853 C.3     
   7 C7            -2.3061     5.6997    -0.6773 C.3     
   8 C8            -2.2795     6.2015     0.7678 C.3     
   9 C9            -1.0475     5.6395     1.4802 C.3     
  10 C10           -1.1069     4.1107     1.4722 C.3     
  11 N11           -1.3184     3.5937    -4.1433 N.2     
  12 C12           -1.3630     3.9859    -2.9034 C.2     
  13 N13           -2.3909     3.6904    -2.0691 N.am    
  14 C14           -3.4396     2.9548    -2.5055 C.2     
  15 C15           -3.4126     2.4996    -3.9014 C.ar    
  16 C16           -4.4534     1.7321    -4.4470 C.ar    
  17 C17           -4.4197     1.3174    -5.7358 C.ar    
  18 C18           -3.3359     1.6419    -6.5784 C.ar    
  19 C19           -2.2595     2.4142    -6.0777 C.ar    
  20 C20           -2.3023     2.8581    -4.6875 C.ar    
  21 C21           -1.1872     2.7327    -6.9172 C.ar    
  22 C22           -1.1885     2.2965    -8.2100 C.ar    
  23 C23           -2.2441     1.5377    -8.7051 C.ar    
  24 C24           -3.3040     1.2100    -7.9132 C.ar    
  25 O25           -4.3696     2.6804    -1.7687 O.2     
  26 C26           -5.5594     0.4946    -6.2790 C.3     
  27 C27           -5.5513    -1.6838    -5.0368 C.ar    
  28 C28           -5.2180    -0.9693    -6.1717 C.ar    
  29 C29           -4.5659    -1.6158    -7.2107 C.ar    
  30 C30           -4.2721    -2.9630    -7.0690 C.ar    
  31 C31           -4.6367    -3.6133    -5.9035 C.ar    
  32 N32           -5.2569    -2.9653    -4.9353 N.ar    
  33 Cl33          -4.2748    -5.3004    -5.7126 Cl      
  34 H34            1.0345    -0.3534    -0.0097 H       
  35 H35           -0.4983    -0.3791     0.8948 H       
  36 H36           -0.5153    -0.3696    -0.8850 H       
  37 H37           -0.2325     3.9403    -0.4893 H       
  38 H38           -3.2664     3.8395    -0.1690 H       
  39 H39           -1.4051     6.0311    -1.1936 H       
  40 H40           -3.1837     6.1000    -1.1848 H       
  41 H41           -2.2372     7.2906     0.7736 H       
  42 H42           -3.1804     5.8701     1.2842 H       
  43 H43           -0.1466     5.9709     0.9639 H       
  44 H44           -1.0286     5.9970     2.5097 H       
  45 H45           -2.0078     3.7793     1.9885 H       
  46 H46           -0.2292     3.7104     1.9797 H       
  47 H47           -0.5429     4.5752    -2.5206 H       
  48 H48           -5.2971     1.4669    -3.8271 H       
  49 H49           -0.3623     3.3215    -6.5440 H       
  50 H50           -0.3598     2.5436    -8.8571 H       
  51 H51           -2.2236     1.2036    -9.7319 H       
  52 H52           -4.1162     0.6200    -8.3116 H       
  53 H53           -6.4623     0.7002    -5.7040 H       
  54 H54           -5.7279     0.7527    -7.3245 H       
  55 H55           -6.0552    -1.1859    -4.2216 H       
  56 H56           -4.2938    -1.0824    -8.1095 H       
  57 H57           -3.7654    -3.4983    -7.8583 H       
@<TRIPOS>BOND
   1    1    2 1
   2    1    3 2
   3    1    4 1
   4    2   34 1
   5    2   35 1
   6    2   36 1
   7    4    5 1
   8    5    6 1
   9    5   10 1
  10    5   37 1
  11    6    7 1
  12    6   13 1
  13    6   38 1
  14    7    8 1
  15    7   39 1
  16    7   40 1
  17    8    9 1
  18    8   41 1
  19    8   42 1
  20    9   10 1
  21    9   43 1
  22    9   44 1
  23   10   45 1
  24   10   46 1
  25   11   12 2
  26   11   20 1
  27   12   13 1
  28   12   47 1
  29   13   14 am
  30   14   15 1
  31   14   25 2
  32   15   16 ar
  33   15   20 ar
  34   16   17 ar
  35   16   48 1
  36   17   18 ar
  37   17   26 1
  38   18   19 ar
  39   18   24 ar
  40   19   20 ar
  41   19   21 ar
  42   21   22 ar
  43   21   49 1
  44   22   23 ar
  45   22   50 1
  46   23   24 ar
  47   23   51 1
  48   24   52 1
  49   26   28 1
  50   26   53 1
  51   26   54 1
  52   27   28 ar
  53   27   32 ar
  54   27   55 1
  55   28   29 ar
  56   29   30 ar
  57   29   56 1
  58   30   31 ar
  59   30   57 1
  60   31   32 ar
  61   31   33 1

#	End of record

