#	Name: ASD00731001
#	Creating user name:	WinNT
#	Creation time:	15. 06. 2019 18:37

#	Modifying user name:	WinNT
#	Modification time:	15. 06. 2019 18:37

#	Program:	/corina/corina34_cracker 3.40 0067  02.08.2006

@<TRIPOS>MOLECULE
ASD00731001
 195  195    0    0    0
SMALL
NO_CHARGES


@<TRIPOS>ATOM
   1 C1            -2.8086     4.9670     4.7566 C.2     
   2 O2            -2.5673     3.8061     5.0118 O.2     
   3 N3            -0.5538     5.4672     5.5118 N.3     
   4 C4            -1.6957     5.9830     4.7451 C.3     
   5 C5            -1.2628     6.2489     3.3019 C.3     
   6 C6            -0.2213     7.3695     3.2801 C.3     
   7 C7             0.2116     7.6353     1.8369 C.3     
   8 N8             1.2089     8.7083     1.8160 N.pl3   
   9 C9             1.7474     9.1227     0.6213 C.2     
  10 N10            1.4587     8.4879    -0.4780 N.2     
  11 N11            2.5952    10.2130     0.5870 N.am    
  12 C12           -6.2711     4.8325     3.5922 C.2     
  13 O13           -6.1752     5.8922     3.0100 O.2     
  14 N14           -4.0712     5.3472     4.4780 N.am    
  15 C15           -5.1521     4.3584     4.4833 C.3     
  16 C16           -5.6759     4.1830     5.9101 C.3     
  17 O17           -6.2770     5.4024     6.3502 O.3     
  18 C18           -9.7625     3.9125     3.0201 C.2     
  19 O19           -9.7762     3.1549     3.9670 O.2     
  20 N20           -7.3785     4.0791     3.4422 N.am    
  21 C21           -8.4663     4.5400     2.5759 C.3     
  22 C22           -8.1730     4.1354     1.1298 C.3     
  23 C23           -6.9246     4.8705     0.6378 C.3     
  24 C24           -6.5590     4.3737    -0.7624 C.3     
  25 C25           -7.2041     6.3739     0.5887 C.3     
  26 C26          -13.1233     3.5301     1.6338 C.2     
  27 O27          -12.7859     3.9595     0.5509 O.2     
  28 N28          -10.9064     4.1933     2.3650 N.am    
  29 C29          -12.1664     3.5832     2.7968 C.3     
  30 C30          -12.7782     4.4191     3.9228 C.3     
  31 C31          -11.8639     4.3705     5.1487 C.3     
  32 C32          -12.4757     5.2064     6.2747 C.3     
  33 N33          -11.6003     5.1598     7.4484 N.pl3   
  34 C34          -11.9461     5.8413     8.5913 C.2     
  35 N35          -13.0527     6.5288     8.6305 N.2     
  36 N36          -11.1246     5.7976     9.6928 N.pl3   
  37 C37          -16.0612     4.1073     0.4704 C.2     
  38 O38          -15.9143     5.0371     1.2351 O.2     
  39 N39          -14.3539     3.0054     1.7971 N.am    
  40 C40          -15.2441     2.8529     0.6437 C.3     
  41 C41          -16.1785     1.6635     0.8743 C.3     
  42 C42          -15.3657     0.3986     0.9764 C.2     
  43 O43          -14.1542     0.4534     0.9617 O.2     
  44 N44          -15.9851    -0.7936     1.0840 N.am    
  45 C45          -19.0298     5.0849    -1.4255 C.2     
  46 O46          -19.2566     3.9433    -1.7663 O.2     
  47 N47          -16.9551     4.1958    -0.5344 N.am    
  48 C48          -17.7493     5.4153    -0.7028 C.3     
  49 C49          -16.9517     6.4347    -1.5186 C.3     
  50 C50          -16.6247     5.8453    -2.8921 C.3     
  51 C51          -15.9369     6.9073    -3.7522 C.3     
  52 C52          -15.6517     6.7701    -0.7849 C.3     
  53 C53          -21.6620     7.0364    -3.0743 C.2     
  54 O54          -21.2810     8.1079    -2.6528 O.2     
  55 N55          -19.9229     6.0581    -1.6931 N.am    
  56 C56          -21.1150     5.7593    -2.4905 C.3     
  57 C57          -22.1757     5.1108    -1.5987 C.3     
  58 C58          -23.4343     4.8325    -2.4230 C.3     
  59 C59          -23.1125     3.8115    -3.5162 C.3     
  60 C60          -22.5199     6.0560    -0.4458 C.3     
  61 C61          -24.3001     8.6651    -3.7497 C.2     
  62 O62          -24.6250     8.0075    -2.7896 O.2     
  63 N63          -22.5747     6.9879    -4.0648 N.am    
  64 C64          -23.1376     8.2285    -4.6036 C.3     
  65 C65          -23.6184     7.9903    -6.0365 C.3     
  66 C66          -22.4369     7.6733    -6.9166 C.2     
  67 C67          -22.2984     6.5813    -7.6924 C.2     
  68 N68          -21.0863     6.6916    -8.3188 N.pl3   
  69 C69          -20.5259     7.8480    -7.9036 C.2     
  70 N70          -21.3415     8.4322    -7.0690 N.2     
  71 O71          -24.9745     9.7846    -4.0558 O.3     
  72 C72            2.7957    10.9460     1.7001 C.2     
  73 O73            2.2981    10.6015     2.7507 O.2     
  74 C74           10.0981    25.5322    10.9255 C.3     
  75 C75            9.2425    24.2653    10.9876 C.3     
  76 C76            9.1753    23.6268     9.5988 C.3     
  77 C77            8.3197    22.3598     9.6609 C.3     
  78 C78            8.2525    21.7213     8.2722 C.3     
  79 C79            7.3969    20.4544     8.3343 C.3     
  80 C80            7.3297    19.8158     6.9455 C.3     
  81 C81            6.4741    18.5489     7.0076 C.3     
  82 C82            6.4069    17.9103     5.6189 C.3     
  83 C83            5.5513    16.6434     5.6810 C.3     
  84 C84            5.4841    16.0049     4.2923 C.3     
  85 C85            4.6285    14.7379     4.3544 C.3     
  86 C86            4.5612    14.0994     2.9656 C.3     
  87 C87            3.7057    12.8325     3.0277 C.3     
  88 C88            3.6384    12.1939     1.6390 C.3     
  89 H89           -0.2100     4.6063     5.1133 H       
  90 H90            0.1811     6.1559     5.5734 H       
  91 H91           -2.0466     6.9113     5.1960 H       
  92 H92           -0.8298     5.3421     2.8796 H       
  93 H93           -2.1294     6.5467     2.7116 H       
  94 H94           -0.6543     8.2762     3.7024 H       
  95 H95            0.6453     7.0716     3.8704 H       
  96 H96            0.6447     6.7285     1.4146 H       
  97 H97           -0.6550     7.9331     1.2466 H       
  98 H98            1.4891     9.1262     2.6453 H       
  99 H99            1.7795     8.8227    -1.3300 H       
 100 H100           3.0462    10.4510    -0.2381 H       
 101 H101          -4.2643     6.2757     4.2739 H       
 102 H102          -4.7739     3.4047     4.1152 H       
 103 H103          -6.4177     3.3846     5.9292 H       
 104 H104          -4.8486     3.9262     6.5718 H       
 105 H105          -6.6318     5.3641     7.2489 H       
 106 H106          -7.4552     3.2316     3.9078 H       
 107 H107          -8.5471     5.6251     2.6403 H       
 108 H108          -8.0043     3.0597     1.0806 H       
 109 H109          -9.0221     4.3993     0.4994 H       
 110 H110          -6.0966     4.6769     1.3197 H       
 111 H111          -7.3870     4.5673    -1.4443 H       
 112 H112          -5.6696     4.8974    -1.1129 H       
 113 H113          -6.3598     3.3026    -0.7274 H       
 114 H114          -8.0321     6.5675    -0.0933 H       
 115 H115          -7.4646     6.7278     1.5862 H       
 116 H116          -6.3147     6.8976     0.2381 H       
 117 H117         -10.8954     4.7992     1.6077 H       
 118 H118         -11.9759     2.5723     3.1571 H       
 119 H119         -12.8865     5.4518     3.5911 H       
 120 H120         -13.7571     4.0167     4.1834 H       
 121 H121         -11.7556     3.3379     5.4804 H       
 122 H122         -10.8851     4.7730     4.8881 H       
 123 H123         -12.5840     6.2390     5.9429 H       
 124 H124         -13.4546     4.8039     6.5353 H       
 125 H125         -10.7768     4.6482     7.4192 H       
 126 H126         -13.2967     7.0096     9.4369 H       
 127 H127         -10.3010     5.2859     9.6636 H       
 128 H128         -11.3685     6.2784    10.4992 H       
 129 H129         -14.6502     2.7287     2.6783 H       
 130 H130         -14.6499     2.6795    -0.2535 H       
 131 H131         -16.7355     1.8130     1.7992 H       
 132 H132         -16.8750     1.5814     0.0399 H       
 133 H133         -16.9540    -0.8375     1.0957 H       
 134 H134         -15.4619    -1.6078     1.1497 H       
 135 H135         -17.0726     3.4521    -1.1460 H       
 136 H136         -17.9823     5.8352     0.2757 H       
 137 H137         -17.5427     7.3420    -1.6439 H       
 138 H138         -15.9606     4.9895    -2.7714 H       
 139 H139         -17.5459     5.5245    -3.3785 H       
 140 H140         -15.7040     6.4874    -4.7307 H       
 141 H141         -16.6011     7.7632    -3.8729 H       
 142 H142         -15.0157     7.2281    -3.2658 H       
 143 H143         -15.0608     5.8628    -0.6596 H       
 144 H144         -15.0835     7.4964    -1.3660 H       
 145 H145         -15.8847     7.1901     0.1936 H       
 146 H146         -19.7764     6.9564    -1.3578 H       
 147 H147         -20.8507     5.0752    -3.2969 H       
 148 H148         -21.7896     4.1738    -1.1975 H       
 149 H149         -24.2139     4.4353    -1.7730 H       
 150 H150         -23.7805     5.7588    -2.8815 H       
 151 H151         -22.2769     4.1725    -4.1159 H       
 152 H152         -22.8457     2.8596    -3.0571 H       
 153 H153         -23.9856     3.6751    -4.1543 H       
 154 H154         -22.9861     6.9579    -0.8422 H       
 155 H155         -23.2100     5.5602     0.2368 H       
 156 H156         -21.6087     6.3231     0.0894 H       
 157 H157         -22.8589     6.1316    -4.4210 H       
 158 H158         -22.3731     9.0054    -4.6013 H       
 159 H159         -24.3170     7.1538    -6.0509 H       
 160 H160         -24.1168     8.8864    -6.4061 H       
 161 H161         -23.0073     5.7736    -7.7995 H       
 162 H162         -20.7017     6.0576    -8.9441 H       
 163 H163         -19.5639     8.2283    -8.2140 H       
 164 H164         -25.7125    10.0241    -3.4788 H       
 165 H165          11.1044    25.2752    10.5946 H       
 166 H166           9.6534    26.2369    10.2227 H       
 167 H167          10.1460    25.9872    11.9148 H       
 168 H168           9.6872    23.5607    11.6903 H       
 169 H169           8.2363    24.5223    11.3184 H       
 170 H170           8.7306    24.3314     8.8961 H       
 171 H171          10.1816    23.3698     9.2680 H       
 172 H172           8.7644    21.6552    10.3637 H       
 173 H173           7.3134    22.6168     9.9918 H       
 174 H174           7.8078    22.4259     7.5694 H       
 175 H175           9.2588    21.4643     7.9413 H       
 176 H176           7.8416    19.7497     9.0370 H       
 177 H177           6.3906    20.7114     8.6651 H       
 178 H178           6.8850    20.5204     6.2428 H       
 179 H179           8.3359    19.5588     6.6147 H       
 180 H180           6.9188    17.8443     7.7104 H       
 181 H181           5.4678    18.8059     7.3385 H       
 182 H182           5.9622    18.6150     4.9161 H       
 183 H183           7.4131    17.6533     5.2880 H       
 184 H184           5.9960    15.9388     6.3838 H       
 185 H185           4.5450    16.9004     6.0118 H       
 186 H186           5.0394    16.7095     3.5895 H       
 187 H187           6.4903    15.7479     3.9614 H       
 188 H188           5.0732    14.0333     5.0571 H       
 189 H189           3.6222    14.9949     4.6852 H       
 190 H190           4.1166    14.8040     2.2629 H       
 191 H191           5.5675    13.8424     2.6348 H       
 192 H192           4.1503    12.1278     3.7305 H       
 193 H193           2.6994    13.0895     3.3586 H       
 194 H194           4.6447    11.9369     1.3081 H       
 195 H195           3.1938    12.8985     0.9362 H       
@<TRIPOS>BOND
   1    1    2 2
   2    1    4 1
   3    1   14 am
   4    3    4 1
   5    3   89 1
   6    3   90 1
   7    4    5 1
   8    4   91 1
   9    5    6 1
  10    5   92 1
  11    5   93 1
  12    6    7 1
  13    6   94 1
  14    6   95 1
  15    7    8 1
  16    7   96 1
  17    7   97 1
  18    8    9 1
  19    8   98 1
  20    9   10 2
  21    9   11 1
  22   10   99 1
  23   11   72 am
  24   11  100 1
  25   12   13 2
  26   12   15 1
  27   12   20 am
  28   14   15 1
  29   14  101 1
  30   15   16 1
  31   15  102 1
  32   16   17 1
  33   16  103 1
  34   16  104 1
  35   17  105 1
  36   18   19 2
  37   18   21 1
  38   18   28 am
  39   20   21 1
  40   20  106 1
  41   21   22 1
  42   21  107 1
  43   22   23 1
  44   22  108 1
  45   22  109 1
  46   23   24 1
  47   23   25 1
  48   23  110 1
  49   24  111 1
  50   24  112 1
  51   24  113 1
  52   25  114 1
  53   25  115 1
  54   25  116 1
  55   26   27 2
  56   26   29 1
  57   26   39 am
  58   28   29 1
  59   28  117 1
  60   29   30 1
  61   29  118 1
  62   30   31 1
  63   30  119 1
  64   30  120 1
  65   31   32 1
  66   31  121 1
  67   31  122 1
  68   32   33 1
  69   32  123 1
  70   32  124 1
  71   33   34 1
  72   33  125 1
  73   34   35 2
  74   34   36 1
  75   35  126 1
  76   36  127 1
  77   36  128 1
  78   37   38 2
  79   37   40 1
  80   37   47 am
  81   39   40 1
  82   39  129 1
  83   40   41 1
  84   40  130 1
  85   41   42 1
  86   41  131 1
  87   41  132 1
  88   42   43 2
  89   42   44 am
  90   44  133 1
  91   44  134 1
  92   45   46 2
  93   45   48 1
  94   45   55 am
  95   47   48 1
  96   47  135 1
  97   48   49 1
  98   48  136 1
  99   49   50 1
 100   49   52 1
 101   49  137 1
 102   50   51 1
 103   50  138 1
 104   50  139 1
 105   51  140 1
 106   51  141 1
 107   51  142 1
 108   52  143 1
 109   52  144 1
 110   52  145 1
 111   53   54 2
 112   53   56 1
 113   53   63 am
 114   55   56 1
 115   55  146 1
 116   56   57 1
 117   56  147 1
 118   57   58 1
 119   57   60 1
 120   57  148 1
 121   58   59 1
 122   58  149 1
 123   58  150 1
 124   59  151 1
 125   59  152 1
 126   59  153 1
 127   60  154 1
 128   60  155 1
 129   60  156 1
 130   61   62 2
 131   61   64 1
 132   61   71 1
 133   63   64 1
 134   63  157 1
 135   64   65 1
 136   64  158 1
 137   65   66 1
 138   65  159 1
 139   65  160 1
 140   66   67 2
 141   66   70 1
 142   67   68 1
 143   67  161 1
 144   68   69 1
 145   68  162 1
 146   69   70 2
 147   69  163 1
 148   71  164 1
 149   72   73 2
 150   72   88 1
 151   74   75 1
 152   74  165 1
 153   74  166 1
 154   74  167 1
 155   75   76 1
 156   75  168 1
 157   75  169 1
 158   76   77 1
 159   76  170 1
 160   76  171 1
 161   77   78 1
 162   77  172 1
 163   77  173 1
 164   78   79 1
 165   78  174 1
 166   78  175 1
 167   79   80 1
 168   79  176 1
 169   79  177 1
 170   80   81 1
 171   80  178 1
 172   80  179 1
 173   81   82 1
 174   81  180 1
 175   81  181 1
 176   82   83 1
 177   82  182 1
 178   82  183 1
 179   83   84 1
 180   83  184 1
 181   83  185 1
 182   84   85 1
 183   84  186 1
 184   84  187 1
 185   85   86 1
 186   85  188 1
 187   85  189 1
 188   86   87 1
 189   86  190 1
 190   86  191 1
 191   87   88 1
 192   87  192 1
 193   87  193 1
 194   88  194 1
 195   88  195 1

#	End of record

