#	Name: ASD01410813
#	Creating user name:	WinNT
#	Creation time:	15. 06. 2019 19:18

#	Modifying user name:	WinNT
#	Modification time:	15. 06. 2019 19:18

#	Program:	/corina/corina34_cracker 3.40 0067  02.08.2006

@<TRIPOS>MOLECULE
ASD01410813
  22   21    0    0    0
SMALL
NO_CHARGES


@<TRIPOS>ATOM
   1 C1            -0.0184     1.5028     0.0103 C.2     
   2 C2             0.0021    -0.0041     0.0020 C.3     
   3 C3            -0.2550    -0.5098    -1.4189 C.3     
   4 C4             0.8341     0.0202    -2.3537 C.3     
   5 O5             1.0197     2.1211     0.0037 O.2     
   6 O6            -1.1898     2.1580     0.0194 O.3     
   7 C7            -0.2343    -2.0396    -1.4273 C.3     
   8 C8            -1.6220    -0.0157    -1.8966 C.3     
   9 N9             1.3145    -0.4785     0.4607 N.3     
  10 H10           -0.7738    -0.3816     0.6680 H       
  11 H11            1.8079    -0.3319    -2.0134 H       
  12 H12            0.6509    -0.3401    -3.3660 H       
  13 H13            0.8193     1.1101    -2.3477 H       
  14 H14           -1.1523     3.1243     0.0245 H       
  15 H15           -1.0102    -2.4172    -0.7613 H       
  16 H16           -0.4174    -2.3999    -2.4396 H       
  17 H17            0.7396    -2.3917    -1.0870 H       
  18 H18           -1.6368     1.0742    -1.8906 H       
  19 H19           -1.8051    -0.3759    -2.9089 H       
  20 H20           -2.3979    -0.3932    -1.2306 H       
  21 H21            1.3326    -1.4853     0.5256 H       
  22 H22            2.0512    -0.1417    -0.1409 H       
@<TRIPOS>BOND
   1    1    2 1
   2    1    5 2
   3    1    6 1
   4    2    3 1
   5    2    9 1
   6    2   10 1
   7    3    4 1
   8    3    7 1
   9    3    8 1
  10    4   11 1
  11    4   12 1
  12    4   13 1
  13    6   14 1
  14    7   15 1
  15    7   16 1
  16    7   17 1
  17    8   18 1
  18    8   19 1
  19    8   20 1
  20    9   21 1
  21    9   22 1

#	End of record

