#	Name: ASD05430066
#	Creating user name:	WinNT
#	Creation time:	15. 06. 2019 20:59

#	Modifying user name:	WinNT
#	Modification time:	15. 06. 2019 20:59

#	Program:	/corina/corina34_cracker 3.40 0067  02.08.2006

@<TRIPOS>MOLECULE
ASD05430066
  63   68    0    0    0
SMALL
NO_CHARGES


@<TRIPOS>ATOM
   1 C1             0.0551     1.1852     0.3889 C.ar    
   2 C2             0.0203    -0.0139    -0.3219 C.ar    
   3 C3             1.1709    -0.4978    -0.9308 C.ar    
   4 C4             2.3527     0.2044    -0.8351 C.ar    
   5 C5             2.3953     1.4081    -0.1238 C.ar    
   6 C6             1.2367     1.8954     0.4889 C.ar    
   7 C7             4.8690    -0.0050     0.2172 C.3     
   8 C8             4.8285     1.4999     0.0679 C.2     
   9 C9             3.6566     2.1594    -0.0200 C.2     
  10 C10            6.2167    -0.4363     0.7865 C.3     
  11 C11            6.8766     0.5921     1.7027 C.3     
  12 N12            7.0879     1.8306     0.9503 N.pl3   
  13 C13            6.1105     2.2195     0.0222 C.2     
  14 N14           -1.1792    -0.7332    -0.4217 N.pl3   
  15 C15           -1.7429    -1.2218    -1.5716 C.2     
  16 C16           -2.8828    -1.8434    -1.2137 C.2     
  17 N17           -3.0161    -1.7401     0.1168 N.2     
  18 C18           -1.9989    -1.0822     0.6034 C.2     
  19 C19           -3.8427    -2.5355    -2.1469 C.3     
  20 C20           -0.9661     2.8929     1.6909 C.3     
  21 O21           -1.0745     1.6587     0.9789 O.3     
  22 C22            6.2041    -1.8557     1.3764 C.3     
  23 O23            7.4634    -2.0261     0.6940 O.3     
  24 C24            7.1733    -1.0003    -0.2775 C.3     
  25 C25            8.2630     2.6739     1.1617 C.3     
  26 C26            8.7546     3.1850    -0.1976 C.3     
  27 N27            7.6219     3.7233    -0.9544 N.pl3   
  28 N28            6.3513     3.1457    -0.8507 N.2     
  29 C29            7.8946     3.8432     2.0380 C.ar    
  30 C30            8.7709     4.2764     3.0153 C.ar    
  31 C31            6.6833     4.4848     1.8596 C.ar    
  32 C32            6.3433     5.5594     2.6632 C.ar    
  33 C33            7.2183     5.9920     3.6472 C.ar    
  34 C34            8.4344     5.3504     3.8213 C.ar    
  35 F35            6.8884     7.0409     4.4322 F       
  36 F36            9.2889     5.7699     4.7800 F       
  37 F37            5.1594     6.1864     2.4882 F       
  38 H38            1.1394    -1.4270    -1.4803 H       
  39 H39            3.2460    -0.1747    -1.3091 H       
  40 H40            1.2651     2.8243     1.0391 H       
  41 H41            4.0732    -0.3233     0.8907 H       
  42 H42            4.7229    -0.4694    -0.7580 H       
  43 H43            3.6429     3.2393    -0.0142 H       
  44 H44            6.2284     0.7896     2.5564 H       
  45 H45            7.8355     0.2085     2.0512 H       
  46 H46           -1.3489    -1.1262    -2.5727 H       
  47 H47           -1.8398    -0.8480     1.6456 H       
  48 H48           -3.5566    -3.5821    -2.2518 H       
  49 H49           -4.8524    -2.4737    -1.7410 H       
  50 H50           -3.8132    -2.0513    -3.1230 H       
  51 H51           -1.9366     3.1561     2.1116 H       
  52 H52           -0.2384     2.7856     2.4953 H       
  53 H53           -0.6406     3.6784     1.0089 H       
  54 H54            6.2839    -1.8825     2.4631 H       
  55 H55            5.4039    -2.4869     0.9900 H       
  56 H56            6.6708    -1.3689    -1.1718 H       
  57 H57            8.0197    -0.3502    -0.4989 H       
  58 H58            9.0503     2.0905     1.6392 H       
  59 H59            9.4953     3.9698    -0.0446 H       
  60 H60            9.2054     2.3630    -0.7536 H       
  61 H61            7.7541     4.4894    -1.5346 H       
  62 H62            9.7186     3.7764     3.1504 H       
  63 H63            6.0019     4.1476     1.0925 H       
@<TRIPOS>BOND
   1    1    2 ar
   2    1    6 ar
   3    1   21 1
   4    2    3 ar
   5    2   14 1
   6    3    4 ar
   7    3   38 1
   8    4    5 ar
   9    4   39 1
  10    5    6 ar
  11    5    9 1
  12    6   40 1
  13    7    8 1
  14    7   10 1
  15    7   41 1
  16    7   42 1
  17    8    9 2
  18    8   13 1
  19    9   43 1
  20   10   11 1
  21   10   22 1
  22   10   24 1
  23   11   12 1
  24   11   44 1
  25   11   45 1
  26   12   13 1
  27   12   25 1
  28   13   28 2
  29   14   15 1
  30   14   18 1
  31   15   16 2
  32   15   46 1
  33   16   17 1
  34   16   19 1
  35   17   18 2
  36   18   47 1
  37   19   48 1
  38   19   49 1
  39   19   50 1
  40   20   21 1
  41   20   51 1
  42   20   52 1
  43   20   53 1
  44   22   23 1
  45   22   54 1
  46   22   55 1
  47   23   24 1
  48   24   56 1
  49   24   57 1
  50   25   26 1
  51   25   29 1
  52   25   58 1
  53   26   27 1
  54   26   59 1
  55   26   60 1
  56   27   28 1
  57   27   61 1
  58   29   30 ar
  59   29   31 ar
  60   30   34 ar
  61   30   62 1
  62   31   32 ar
  63   31   63 1
  64   32   33 ar
  65   32   37 1
  66   33   34 ar
  67   33   35 1
  68   34   36 1

#	End of record

