#	Name: ASD01881849
#	Creating user name:	WinNT
#	Creation time:	15. 06. 2019 19:43

#	Modifying user name:	WinNT
#	Modification time:	15. 06. 2019 19:43

#	Program:	/corina/corina34_cracker 3.40 0067  02.08.2006

@<TRIPOS>MOLECULE
ASD01881849
  28   28    0    0    0
SMALL
NO_CHARGES


@<TRIPOS>ATOM
   1 C1            -0.0184     1.5028     0.0103 C.2     
   2 C2             0.0021    -0.0041     0.0020 C.3     
   3 O3             1.0197     2.1211     0.0037 O.2     
   4 O4            -1.1898     2.1580     0.0194 O.3     
   5 N5             1.3897    -0.4735    -0.0138 N.pl3   
   6 C6             2.0957    -0.7151     1.2470 C.3     
   7 C7             2.0368    -0.6899    -1.2253 C.ar    
   8 C8             1.3979    -0.3600    -2.4164 C.ar    
   9 C9             2.0526    -0.5802    -3.6145 C.ar    
  10 C10            3.3302    -1.1256    -3.5813 C.ar    
  11 C11            3.9042    -1.4292    -2.3624 C.ar    
  12 N12            3.2571    -1.2029    -1.2347 N.ar    
  13 Br13           4.2729    -1.4492    -5.1883 Br      
  14 C14           -1.1335     3.6089     0.0270 C.3     
  15 C15           -2.5551     4.1744     0.0369 C.3     
  16 H16           -0.4983    -0.3791     0.8948 H       
  17 H17           -0.5153    -0.3696    -0.8850 H       
  18 H18            1.9414    -1.7485     1.5576 H       
  19 H19            3.1612    -0.5329     1.1075 H       
  20 H20            1.7096    -0.0437     2.0140 H       
  21 H21            0.4038     0.0622    -2.4056 H       
  22 H22            1.5815    -0.3343    -4.5547 H       
  23 H23            4.8970    -1.8532    -2.3316 H       
  24 H24           -0.6017     3.9472     0.9164 H       
  25 H25           -0.6102     3.9569    -0.8636 H       
  26 H26           -2.5128     5.2636     0.0426 H       
  27 H27           -3.0869     3.8361    -0.8525 H       
  28 H28           -3.0784     3.8265     0.9275 H       
@<TRIPOS>BOND
   1    1    2 1
   2    1    3 2
   3    1    4 1
   4    2    5 1
   5    2   16 1
   6    2   17 1
   7    4   14 1
   8    5    6 1
   9    5    7 1
  10    6   18 1
  11    6   19 1
  12    6   20 1
  13    7    8 ar
  14    7   12 ar
  15    8    9 ar
  16    8   21 1
  17    9   10 ar
  18    9   22 1
  19   10   11 ar
  20   10   13 1
  21   11   12 ar
  22   11   23 1
  23   14   15 1
  24   14   24 1
  25   14   25 1
  26   15   26 1
  27   15   27 1
  28   15   28 1

#	End of record

