#	Name: ASD07930562
#	Creating user name:	WinNT
#	Creation time:	15. 06. 2019 21:12

#	Modifying user name:	WinNT
#	Modification time:	15. 06. 2019 21:12

#	Program:	/corina/corina34_cracker 3.40 0067  02.08.2006

@<TRIPOS>MOLECULE
ASD07930562
  42   45    0    0    0
SMALL
NO_CHARGES


@<TRIPOS>ATOM
   1 S1            -0.0218     1.7566     0.0117 S.3     
   2 C2             0.0021    -0.0041     0.0020 C.2     
   3 N3             1.0067    -0.6801    -0.4023 N.2     
   4 C4             2.2788    -0.2480    -0.9298 C.3     
   5 C5             2.4018     1.2696    -1.1298 C.3     
   6 C6             1.7642     2.0612    -0.0037 C.3     
   7 O7             1.6798     0.2587    -3.1728 O.3     
   8 C8             2.3747    -0.7374    -2.4040 C.3     
   9 C9             1.6874     1.5096    -2.4693 C.3     
  10 N10           -1.1092    -0.6801     0.4498 N.pl3   
  11 C11            2.4451     2.5606    -3.2830 C.3     
  12 F12            1.7276     2.8552    -4.4474 F       
  13 C13            3.4157    -0.7905    -0.1027 C.ar    
  14 C14            4.7250    -0.5015    -0.4531 C.ar    
  15 C15            5.7744    -0.9968     0.3026 C.ar    
  16 C16            5.5194    -1.7825     1.4109 C.ar    
  17 C17            4.2021    -2.0754     1.7665 C.ar    
  18 C18            3.1507    -1.5691     1.0050 C.ar    
  19 C19            3.0065    -2.5013     3.9178 C.ar    
  20 C20            3.9219    -2.9186     2.9547 C.ar    
  21 C21            4.5724    -4.1444     3.1244 C.ar    
  22 C22            4.2769    -4.8945     4.2485 C.ar    
  23 C23            3.3537    -4.4110     5.1623 C.ar    
  24 N24            2.7552    -3.2487     4.9735 N.ar    
  25 F25            3.0613    -5.1394     6.2619 F       
  26 F26            6.5431    -2.2661     2.1480 F       
  27 F27            4.9784     0.2657    -1.5359 F       
  28 H28            3.4526     1.5441    -1.2228 H       
  29 H29            1.9502     3.1243    -0.1561 H       
  30 H30            2.1942     1.7497     0.9482 H       
  31 H31            3.4173    -0.7975    -2.7161 H       
  32 H32            1.8892    -1.7072    -2.5136 H       
  33 H33            0.6646     1.8412    -2.2904 H       
  34 H34           -1.8839    -0.1868     0.7619 H       
  35 H35           -1.1182    -1.6500     0.4533 H       
  36 H36            2.5605     3.4668    -2.6883 H       
  37 H37            3.4284     2.1737    -3.5503 H       
  38 H38            6.7931    -0.7693     0.0255 H       
  39 H39            2.1296    -1.7896     1.2790 H       
  40 H40            2.5008    -1.5542     3.8004 H       
  41 H41            5.2874    -4.4971     2.3959 H       
  42 H42            4.7600    -5.8465     4.4121 H       
@<TRIPOS>BOND
   1    1    2 1
   2    1    6 1
   3    2    3 2
   4    2   10 1
   5    3    4 1
   6    4    8 1
   7    4   13 1
   8    4    5 1
   9    5    6 1
  10    5    9 1
  11    5   28 1
  12    6   29 1
  13    6   30 1
  14    7    8 1
  15    7    9 1
  16    8   31 1
  17    8   32 1
  18    9   11 1
  19    9   33 1
  20   10   34 1
  21   10   35 1
  22   11   12 1
  23   11   36 1
  24   11   37 1
  25   13   14 ar
  26   13   18 ar
  27   14   15 ar
  28   14   27 1
  29   15   16 ar
  30   15   38 1
  31   16   17 ar
  32   16   26 1
  33   17   18 ar
  34   17   20 1
  35   18   39 1
  36   19   20 ar
  37   19   24 ar
  38   19   40 1
  39   20   21 ar
  40   21   22 ar
  41   21   41 1
  42   22   23 ar
  43   22   42 1
  44   23   24 ar
  45   23   25 1

#	End of record

