#	Name: ASD03090861
#	Creating user name:	WinNT
#	Creation time:	15. 06. 2019 20:29

#	Modifying user name:	WinNT
#	Modification time:	15. 06. 2019 20:29

#	Program:	/corina/corina34_cracker 3.40 0067  02.08.2006

@<TRIPOS>MOLECULE
ASD03090861
  48   50    0    0    0
SMALL
NO_CHARGES


@<TRIPOS>ATOM
   1 N1            -0.0175     1.3431    -0.0865 N.am    
   2 C2             0.0012    -0.0044    -0.0682 C.2     
   3 O3             1.0649    -0.5994    -0.0778 O.2     
   4 N4            -1.1464    -0.6880    -0.0396 N.2     
   5 C5             1.2408     2.0927    -0.1178 C.3     
   6 C6             1.6548     2.3339    -1.5709 C.3     
   7 C7             2.9689     3.1167    -1.6037 C.3     
   8 C8             4.0863     2.2629    -1.0008 C.3     
   9 C9             3.3186     3.4659    -3.0517 C.3     
  10 C10           -1.2961     2.0582    -0.0810 C.3     
  11 S11            0.2595    -3.0387    -0.0302 S.3     
  12 C12           -1.1280    -2.0187    -0.0216 C.2     
  13 N13           -2.1987    -2.8518     0.0077 N.pl3   
  14 C14           -1.9391    -4.1884     0.0222 C.2     
  15 C15           -0.6633    -4.5510     0.0063 C.2     
  16 C16           -0.1140    -5.9542     0.0173 C.3     
  17 O17           -7.4524    -1.1574     0.0453 O.3     
  18 C18           -8.0539    -2.4331     0.3354 C.3     
  19 O19           -7.0845    -3.3848    -0.1417 O.3     
  20 C20           -5.8790    -2.7494    -0.0608 C.ar    
  21 C21           -6.1048    -1.3793     0.0543 C.ar    
  22 C22           -4.5832    -3.2363    -0.0763 C.ar    
  23 C23           -3.5113    -2.3592     0.0230 C.ar    
  24 C24           -3.7393    -0.9949     0.1377 C.ar    
  25 C25           -5.0326    -0.5079     0.1538 C.ar    
  26 F26           -8.2518    -2.5814     1.7124 F       
  27 F27           -9.2627    -2.5748    -0.3544 F       
  28 H28            1.1060     3.0503     0.3852 H       
  29 H29            2.0170     1.5212     0.3910 H       
  30 H30            1.7896     1.3763    -2.0739 H       
  31 H31            0.8786     2.9054    -2.0797 H       
  32 H32            2.8600     4.0339    -1.0249 H       
  33 H33            5.0225     2.8207    -1.0242 H       
  34 H34            3.8372     2.0142     0.0307 H       
  35 H35            4.1953     1.3457    -1.5796 H       
  36 H36            2.5225     4.0741    -3.4811 H       
  37 H37            4.2548     4.0236    -3.0750 H       
  38 H38            3.4275     2.5487    -3.6304 H       
  39 H39           -1.6010     2.2496     0.9478 H       
  40 H40           -1.1851     3.0052    -0.6092 H       
  41 H41           -2.0536     1.4518    -0.5776 H       
  42 H42           -2.7344    -4.9188     0.0456 H       
  43 H43            0.9752    -5.9182    -0.0004 H       
  44 H44           -0.4460    -6.4672     0.9200 H       
  45 H45           -0.4741    -6.4923    -0.8596 H       
  46 H46           -4.4060    -4.2979    -0.1651 H       
  47 H47           -2.9052    -0.3132     0.2149 H       
  48 H48           -5.2076     0.5542     0.2426 H       
@<TRIPOS>BOND
   1    1    2 am
   2    1    5 1
   3    1   10 1
   4    2    3 2
   5    2    4 1
   6    4   12 2
   7    5    6 1
   8    5   28 1
   9    5   29 1
  10    6    7 1
  11    6   30 1
  12    6   31 1
  13    7    8 1
  14    7    9 1
  15    7   32 1
  16    8   33 1
  17    8   34 1
  18    8   35 1
  19    9   36 1
  20    9   37 1
  21    9   38 1
  22   10   39 1
  23   10   40 1
  24   10   41 1
  25   11   12 1
  26   11   15 1
  27   12   13 1
  28   13   14 1
  29   13   23 1
  30   14   15 2
  31   14   42 1
  32   15   16 1
  33   16   43 1
  34   16   44 1
  35   16   45 1
  36   17   18 1
  37   17   21 1
  38   18   19 1
  39   18   26 1
  40   18   27 1
  41   19   20 1
  42   20   21 ar
  43   20   22 ar
  44   21   25 ar
  45   22   23 ar
  46   22   46 1
  47   23   24 ar
  48   24   25 ar
  49   24   47 1
  50   25   48 1

#	End of record

