#	Name: ASD02039423
#	Creating user name:	WinNT
#	Creation time:	15. 06. 2019 20:18

#	Modifying user name:	WinNT
#	Modification time:	15. 06. 2019 20:18

#	Program:	/corina/corina34_cracker 3.40 0067  02.08.2006

@<TRIPOS>MOLECULE
ASD02039423
  56   59    0    0    0
SMALL
NO_CHARGES


@<TRIPOS>ATOM
   1 C1            -0.3716     0.3673    -0.6331 C.ar    
   2 C2             0.1843    -0.8609    -0.9428 C.ar    
   3 C3             0.5171     1.5108    -0.2163 C.3     
   4 N4             1.0444     2.1791    -1.4086 N.am    
   5 C5             0.2444     3.1996    -2.0905 C.3     
   6 C6             2.2654     1.8551    -1.8783 C.2     
   7 C7             3.0228     0.7519    -1.2620 C.2     
   8 C8             4.2065     0.2394    -1.7062 C.2     
   9 N9             2.6728     0.0639    -0.1452 N.2     
  10 C10            3.5823    -0.8353     0.0975 C.2     
  11 N11            4.5495    -0.7540    -0.8529 N.pl3   
  12 O12            2.7421     2.4735    -2.8108 O.2     
  13 C13            5.7483    -1.5916    -0.9394 C.3     
  14 C14            0.9830     4.5347    -2.2824 C.3     
  15 C15            0.3393     4.6001    -3.6775 C.3     
  16 C16            0.2513     3.0658    -3.6224 C.3     
  17 C17           -0.6239    -1.9152    -1.3270 C.ar    
  18 C18           -1.9939    -1.7465    -1.4030 C.ar    
  19 C19           -2.5594    -0.5088    -1.0908 C.ar    
  20 C20           -1.7375     0.5499    -0.7101 C.ar    
  21 C21           -4.0281    -0.3201    -1.1699 C.ar    
  22 F22           -2.7834    -2.7765    -1.7787 F       
  23 C23           -4.5935     0.8773    -0.7404 C.ar    
  24 N24           -4.7908    -1.2926    -1.6548 N.ar    
  25 C25           -6.1047    -1.1627    -1.7422 C.ar    
  26 C26           -6.7326     0.0070    -1.3251 C.ar    
  27 C27           -5.9671     1.0439    -0.8190 C.ar    
  28 N28           -6.8658    -2.2057    -2.2566 N.pl3   
  29 C29           -8.3062    -2.0308    -2.4593 C.3     
  30 C30           -6.2278    -3.4800    -2.5963 C.3     
  31 H31            1.2542    -0.9969    -0.8847 H       
  32 H32           -0.0597     2.2228     0.3741 H       
  33 H33            1.3444     1.1287     0.3818 H       
  34 H34           -0.7531     3.3096    -1.6650 H       
  35 H35            4.7631     0.5639    -2.5730 H       
  36 H36            3.5712    -1.5315     0.9231 H       
  37 H37            5.5320    -2.4745    -1.5408 H       
  38 H38            6.5551    -1.0245    -1.4037 H       
  39 H39            6.0498    -1.8990     0.0620 H       
  40 H40            0.6448     5.3216    -1.6082 H       
  41 H41            2.0680     4.4339    -2.3064 H       
  42 H42           -0.6328     5.0931    -3.6871 H       
  43 H43            1.0111     4.9714    -4.4513 H       
  44 H44            1.1364     2.5634    -4.0129 H       
  45 H45           -0.6775     2.6668    -4.0301 H       
  46 H46           -0.1841    -2.8716    -1.5683 H       
  47 H47           -2.1693     1.5097    -0.4675 H       
  48 H48           -3.9689     1.6673    -0.3501 H       
  49 H49           -7.8054     0.1067    -1.3995 H       
  50 H50           -6.4310     1.9615    -0.4888 H       
  51 H51           -8.4781    -1.2106    -3.1563 H       
  52 H52           -8.7299    -2.9487    -2.8666 H       
  53 H53           -8.7822    -1.8028    -1.5056 H       
  54 H54           -6.2451    -4.1379    -1.7274 H       
  55 H55           -6.7683    -3.9493    -3.4183 H       
  56 H56           -5.1952    -3.3008    -2.8958 H       
@<TRIPOS>BOND
   1    1    2 ar
   2    1    3 1
   3    1   20 ar
   4    2   17 ar
   5    2   31 1
   6    3    4 1
   7    3   32 1
   8    3   33 1
   9    4    5 1
  10    4    6 am
  11    5   14 1
  12    5   16 1
  13    5   34 1
  14    6    7 1
  15    6   12 2
  16    7    8 2
  17    7    9 1
  18    8   11 1
  19    8   35 1
  20    9   10 2
  21   10   11 1
  22   10   36 1
  23   11   13 1
  24   13   37 1
  25   13   38 1
  26   13   39 1
  27   14   15 1
  28   14   40 1
  29   14   41 1
  30   15   16 1
  31   15   42 1
  32   15   43 1
  33   16   44 1
  34   16   45 1
  35   17   18 ar
  36   17   46 1
  37   18   19 ar
  38   18   22 1
  39   19   20 ar
  40   19   21 1
  41   20   47 1
  42   21   23 ar
  43   21   24 ar
  44   23   27 ar
  45   23   48 1
  46   24   25 ar
  47   25   26 ar
  48   25   28 1
  49   26   27 ar
  50   26   49 1
  51   27   50 1
  52   28   29 1
  53   28   30 1
  54   29   51 1
  55   29   52 1
  56   29   53 1
  57   30   54 1
  58   30   55 1
  59   30   56 1

#	End of record

