#	Name: ASD01810909
#	Creating user name:	WinNT
#	Creation time:	15. 06. 2019 19:25

#	Modifying user name:	WinNT
#	Modification time:	15. 06. 2019 19:25

#	Program:	/corina/corina34_cracker 3.40 0067  02.08.2006

@<TRIPOS>MOLECULE
ASD01810909
  42   46    0    0    0
SMALL
NO_CHARGES


@<TRIPOS>ATOM
   1 C1            -0.0168     1.3873     0.0097 C.ar    
   2 C2             0.0021    -0.0041     0.0020 C.ar    
   3 C3             1.2152    -0.6854    -0.0128 C.ar    
   4 C4             2.4030     0.0180    -0.0204 C.ar    
   5 C5             2.3865     1.4134    -0.0132 C.ar    
   6 C6             1.1686     2.0947     0.0022 C.ar    
   7 C7             3.6587     2.1697    -0.0209 C.ar    
   8 C8             4.6631     1.8695     0.8782 C.ar    
   9 C9             5.8651     2.5723     0.8821 C.ar    
  10 C10            6.1238     3.5831     0.0162 C.ar    
  11 C11            3.8816     3.2480    -0.9856 C.ar    
  12 N12            3.8844     4.7884    -2.5540 N.pl3   
  13 C13            3.1457     3.8138    -2.0033 C.2     
  14 C14            5.1633     3.9690    -0.9426 C.ar    
  15 N15            5.1151     4.8843    -1.8938 N.2     
  16 C16            3.4612     5.6353    -3.6720 C.3     
  17 F17            1.2307    -2.0363    -0.0193 F       
  18 F18           -1.1961     2.0463     0.0188 F       
  19 N19           -1.2018    -0.7198     0.0097 N.am    
  20 N20           -2.9083    -1.7193    -1.2461 N.2     
  21 C21           -3.5704    -2.1245    -0.1364 C.ar    
  22 C22           -3.0332    -1.8140     1.1338 C.ar    
  23 C23           -1.7706    -1.0644     1.1900 C.2     
  24 C24           -1.7926    -1.0579    -1.1678 C.2     
  25 C25           -4.7713    -2.8361    -0.1972 C.ar    
  26 N26           -5.3749    -3.2062     0.9117 N.ar    
  27 C27           -4.8947    -2.9344     2.1123 C.ar    
  28 C28           -3.7192    -2.2283     2.2737 C.ar    
  29 O29           -1.2571    -0.7659     2.2523 O.2     
  30 H30            3.3444    -0.5113    -0.0316 H       
  31 H31            1.1534     3.1746     0.0078 H       
  32 H32            4.5131     1.0738     1.5929 H       
  33 H33            6.6214     2.3017     1.6041 H       
  34 H34            7.0726     4.0971     0.0609 H       
  35 H35            2.1501     3.5235    -2.3049 H       
  36 H36            2.9581     6.5218    -3.2861 H       
  37 H37            4.3345     5.9361    -4.2508 H       
  38 H38            2.7762     5.0780    -4.3110 H       
  39 H39           -1.3089    -0.7606    -2.0865 H       
  40 H40           -5.2047    -3.0823    -1.1553 H       
  41 H41           -5.4369    -3.2651     2.9858 H       
  42 H42           -3.3351    -2.0117     3.2595 H       
@<TRIPOS>BOND
   1    1    2 ar
   2    1    6 ar
   3    1   18 1
   4    2    3 ar
   5    2   19 1
   6    3    4 ar
   7    3   17 1
   8    4    5 ar
   9    4   30 1
  10    5    6 ar
  11    5    7 1
  12    6   31 1
  13    7    8 ar
  14    7   11 ar
  15    8    9 ar
  16    8   32 1
  17    9   10 ar
  18    9   33 1
  19   10   14 ar
  20   10   34 1
  21   11   14 ar
  22   11   13 2
  23   12   13 1
  24   12   15 1
  25   12   16 1
  26   13   35 1
  27   14   15 2
  28   16   36 1
  29   16   37 1
  30   16   38 1
  31   19   24 1
  32   19   23 am
  33   20   21 1
  34   20   24 2
  35   21   22 ar
  36   21   25 ar
  37   22   23 1
  38   22   28 ar
  39   23   29 2
  40   24   39 1
  41   25   26 ar
  42   25   40 1
  43   26   27 ar
  44   27   28 ar
  45   27   41 1
  46   28   42 1

#	End of record

