#	Name: ASD01915157
#	Creating user name:	WinNT
#	Creation time:	15. 06. 2019 20:04

#	Modifying user name:	WinNT
#	Modification time:	15. 06. 2019 20:04

#	Program:	/corina/corina34_cracker 3.40 0067  02.08.2006

@<TRIPOS>MOLECULE
ASD01915157
  26   27    0    0    0
SMALL
NO_CHARGES


@<TRIPOS>ATOM
   1 C1            -0.0159     1.3222     0.0093 C.ar    
   2 N2             0.0021    -0.0041     0.0020 N.ar    
   3 C3            -1.1214    -0.6976     0.0090 C.ar    
   4 C4            -2.3434    -0.0114     0.0244 C.ar    
   5 C5            -2.3173     1.3899     0.0316 C.ar    
   6 N6            -1.1508     2.0084     0.0293 N.ar    
   7 C7            -3.5859    -0.7233     0.0319 C.1     
   8 C8            -4.6045    -1.3069     0.0382 C.1     
   9 C9            -5.8470    -2.0188     0.0457 C.ar    
  10 C10           -7.0568    -1.3195     0.0610 C.ar    
  11 C11           -8.2495    -2.0119     0.0678 C.ar    
  12 C12           -8.2502    -3.3957     0.0594 C.ar    
  13 C13           -7.0561    -4.0950     0.0447 C.ar    
  14 C14           -5.8556    -3.4162     0.0320 C.ar    
  15 S15            1.5129     2.1981    -0.0006 S.3     
  16 C16            0.8996     3.9010     0.0144 C.3     
  17 H17           -1.0991    -1.7773     0.0027 H       
  18 H18           -3.2374     1.9552     0.0431 H       
  19 H19           -7.0577    -0.2395     0.0679 H       
  20 H20           -9.1853    -1.4729     0.0800 H       
  21 H21           -9.1873    -3.9326     0.0648 H       
  22 H22           -7.0644    -5.1750     0.0386 H       
  23 H23           -4.9245    -3.9632     0.0205 H       
  24 H24            0.3015     4.0639     0.9110 H       
  25 H25            1.7433     4.5911     0.0101 H       
  26 H26            0.2845     4.0734    -0.8688 H       
@<TRIPOS>BOND
   1    1    2 ar
   2    1   15 1
   3    1    6 ar
   4    2    3 ar
   5    3    4 ar
   6    3   17 1
   7    4    5 ar
   8    4    7 1
   9    5    6 ar
  10    5   18 1
  11    7    8 3
  12    8    9 1
  13    9   10 ar
  14    9   14 ar
  15   10   11 ar
  16   10   19 1
  17   11   12 ar
  18   11   20 1
  19   12   13 ar
  20   12   21 1
  21   13   14 ar
  22   13   22 1
  23   14   23 1
  24   15   16 1
  25   16   24 1
  26   16   25 1
  27   16   26 1

#	End of record

