#	Name: ASD09740555
#	Creating user name:	WinNT
#	Creation time:	15. 06. 2019 21:23

#	Modifying user name:	WinNT
#	Modification time:	15. 06. 2019 21:23

#	Program:	/corina/corina34_cracker 3.40 0067  02.08.2006

@<TRIPOS>MOLECULE
ASD09740555
  63   67    0    0    0
SMALL
NO_CHARGES


@<TRIPOS>ATOM
   1 N1             0.5222     1.6413     0.7958 N.2     
   2 C2             0.5155     0.3587     1.0605 C.2     
   3 C3             1.6679     2.2589     0.8695 C.2     
   4 S4             2.9195     1.1074     1.3285 S.3     
   5 C5             1.7134    -0.1767     1.3824 C.2     
   6 C6             1.8829     3.6972     0.6083 C.ar    
   7 C7             0.8085     4.5083     0.2508 C.ar    
   8 C8             3.1637     4.2453     0.7258 C.ar    
   9 C9             3.3698     5.5863     0.4839 C.ar    
  10 C10            2.3078     6.4027     0.1224 C.ar    
  11 C11            1.0172     5.8646     0.0061 C.ar    
  12 O12            2.5163     7.7223    -0.1137 O.3     
  13 C13            3.8601     8.1962    -0.0059 C.3     
  14 C14            4.0175     9.4754    -0.8304 C.3     
  15 C15            4.1805     8.4920     1.4606 C.3     
  16 C16           -0.0808     6.7047    -0.3673 C.1     
  17 N17           -0.9517     7.3711    -0.6635 N.1     
  18 C18            1.9681    -1.5927     1.7207 C.ar    
  19 C19            3.0006    -2.2891     1.0859 C.ar    
  20 C20            3.2332    -3.6108     1.4063 C.ar    
  21 C21            2.4437    -4.2419     2.3550 C.ar    
  22 C22            1.4211    -3.5575     2.9854 C.ar    
  23 C23            1.1821    -2.2343     2.6783 C.ar    
  24 C24            3.9877    -1.8349     0.0323 C.3     
  25 C25            5.1197    -2.8838     0.0610 C.3     
  26 C26            4.3936    -4.1389     0.5898 C.3     
  27 N27            5.2928    -4.9279     1.4355 N.am    
  28 C28            5.0855    -6.2507     1.5892 C.2     
  29 N29            5.9696    -6.9954     2.2823 N.am    
  30 O30            4.1009    -6.7724     1.1025 O.2     
  31 C31            7.1005    -6.3692     2.9854 C.3     
  32 C32            7.1200    -6.8880     4.4278 C.3     
  33 O33            7.0936    -8.3173     4.4144 O.3     
  34 C34            5.9134    -8.8754     3.8317 C.3     
  35 C35            5.8289    -8.4579     2.3634 C.3     
  36 H36           -0.3880    -0.2319     1.0242 H       
  37 H37           -0.1824     4.0879     0.1631 H       
  38 H38            3.9946     3.6155     1.0075 H       
  39 H39            4.3617     6.0034     0.5764 H       
  40 H40            4.5448     7.4356    -0.3811 H       
  41 H41            3.3328    10.2360    -0.4552 H       
  42 H42            5.0425     9.8369    -0.7482 H       
  43 H43            3.7892     9.2646    -1.8752 H       
  44 H44            5.2055     8.8535     1.5428 H       
  45 H45            3.4958     9.2526     1.8358 H       
  46 H46            4.0684     7.5807     2.0480 H       
  47 H47            2.6287    -5.2765     2.6034 H       
  48 H48            0.8115    -4.0585     3.7229 H       
  49 H49            0.3836    -1.6993     3.1708 H       
  50 H50            3.5127    -1.8177    -0.9487 H       
  51 H51            4.3794    -0.8486     0.2811 H       
  52 H52            5.5133    -3.0568    -0.9406 H       
  53 H53            5.9133    -2.5789     0.7432 H       
  54 H54            4.0279    -4.7424    -0.2410 H       
  55 H55            6.0374    -4.4983     1.8848 H       
  56 H56            8.0336    -6.6331     2.4878 H       
  57 H57            6.9778    -5.2861     2.9864 H       
  58 H58            8.0270    -6.5452     4.9257 H       
  59 H59            6.2468    -6.5127     4.9615 H       
  60 H60            5.9524    -9.9625     3.9007 H       
  61 H61            5.0359    -8.5073     4.3632 H       
  62 H62            4.8660    -8.7591     1.9510 H       
  63 H63            6.6339    -8.9304     1.8005 H       
@<TRIPOS>BOND
   1    1    2 1
   2    1    3 2
   3    2    5 2
   4    2   36 1
   5    3    4 1
   6    3    6 1
   7    4    5 1
   8    5   18 1
   9    6    7 ar
  10    6    8 ar
  11    7   11 ar
  12    7   37 1
  13    8    9 ar
  14    8   38 1
  15    9   10 ar
  16    9   39 1
  17   10   11 ar
  18   10   12 1
  19   11   16 1
  20   12   13 1
  21   13   14 1
  22   13   15 1
  23   13   40 1
  24   14   41 1
  25   14   42 1
  26   14   43 1
  27   15   44 1
  28   15   45 1
  29   15   46 1
  30   16   17 3
  31   18   19 ar
  32   18   23 ar
  33   19   20 ar
  34   19   24 1
  35   20   21 ar
  36   20   26 1
  37   21   22 ar
  38   21   47 1
  39   22   23 ar
  40   22   48 1
  41   23   49 1
  42   24   25 1
  43   24   50 1
  44   24   51 1
  45   25   26 1
  46   25   52 1
  47   25   53 1
  48   26   27 1
  49   26   54 1
  50   27   28 am
  51   27   55 1
  52   28   29 am
  53   28   30 2
  54   29   31 1
  55   29   35 1
  56   31   32 1
  57   31   56 1
  58   31   57 1
  59   32   33 1
  60   32   58 1
  61   32   59 1
  62   33   34 1
  63   34   35 1
  64   34   60 1
  65   34   61 1
  66   35   62 1
  67   35   63 1

#	End of record

