#	Name: ASD01810573
#	Creating user name:	WinNT
#	Creation time:	15. 06. 2019 19:24

#	Modifying user name:	WinNT
#	Modification time:	15. 06. 2019 19:24

#	Program:	/corina/corina34_cracker 3.40 0067  02.08.2006

@<TRIPOS>MOLECULE
ASD01810573
  60   65    0    0    0
SMALL
NO_CHARGES


@<TRIPOS>ATOM
   1 C1            -0.0166     1.3753     0.0096 C.ar    
   2 C2             0.0021    -0.0041     0.0020 C.ar    
   3 C3             1.2091    -0.6848    -0.0131 C.ar    
   4 C4             2.4041     0.0035    -0.0208 C.ar    
   5 C5             2.4071     1.3943    -0.0134 C.ar    
   6 C6             1.1822     2.0811     0.0019 C.ar    
   7 N7             3.6032     2.0911    -0.0216 N.pl3   
   8 C8             3.6682     3.4322    -0.0147 C.2     
   9 C9             2.5370     4.2098     0.0011 C.2     
  10 C10            1.2082     3.5566     0.0096 C.2     
  11 C11            2.2570     5.6421     0.0120 C.2     
  12 N12            0.9118     5.7622     0.0259 N.am    
  13 N13            0.3123     4.5002     0.0239 N.2     
  14 C14            0.1851     7.0341     0.0405 C.3     
  15 C15           -0.0780     7.4787    -1.3752 C.ar    
  16 O16            3.0739     6.5488     0.0097 O.2     
  17 C17            4.8552     1.3305    -0.0379 C.3     
  18 C18            5.2704     1.0772    -1.4643 C.ar    
  19 C19            0.7283     8.4371    -1.9597 C.ar    
  20 C20            0.4869     8.8450    -3.2584 C.ar    
  21 C21           -0.5604     8.2940    -3.9725 C.ar    
  22 C22           -1.3664     7.3347    -3.3881 C.ar    
  23 C23           -1.1224     6.9238    -2.0912 C.ar    
  24 C24           -2.0009     5.8780    -1.4542 C.3     
  25 C25           -0.8242     8.7394    -5.3878 C.3     
  26 C26            6.0827     1.9854    -2.1181 C.ar    
  27 C27            6.4646     1.7563    -3.4255 C.ar    
  28 C28            6.0325     0.6124    -4.0831 C.ar    
  29 C29            5.2173    -0.2978    -3.4239 C.ar    
  30 C30            4.8430    -0.0657    -2.1148 C.ar    
  31 N31            6.4180     0.3773    -5.4102 N.pl3   
  32 C32            6.0696    -0.6908    -6.1628 C.2     
  33 C33            6.6438    -0.5423    -7.3791 C.2     
  34 C34            7.3671     0.6555    -7.3707 C.2     
  35 N35            7.2274     1.2101    -6.1935 N.2     
  36 H36           -0.9578     1.9050     0.0170 H       
  37 H37           -0.9267    -0.5551     0.0083 H       
  38 H38            1.2140    -1.7648    -0.0186 H       
  39 H39            3.3385    -0.5379    -0.0323 H       
  40 H40            4.6359     3.9117    -0.0215 H       
  41 H41           -0.7628     6.9050     0.5629 H       
  42 H42            0.7826     7.7881     0.5530 H       
  43 H43            5.6328     1.8998     0.4712 H       
  44 H44            4.7087     0.3785     0.4723 H       
  45 H45            1.5467     8.8677    -1.4017 H       
  46 H46            1.1165     9.5944    -3.7149 H       
  47 H47           -2.1850     6.9044    -3.9459 H       
  48 H48           -1.5892     4.8883    -1.6517 H       
  49 H49           -2.0435     6.0457    -0.3781 H       
  50 H50           -3.0054     5.9437    -1.8723 H       
  51 H51           -0.2623     8.1095    -6.0775 H       
  52 H52           -1.8892     8.6538    -5.6031 H       
  53 H53           -0.5117     9.7768    -5.5065 H       
  54 H54            6.4186     2.8751    -1.6060 H       
  55 H55            7.0985     2.4663    -3.9359 H       
  56 H56            4.8793    -1.1883    -3.9329 H       
  57 H57            4.2090    -0.7734    -1.6014 H       
  58 H58            5.4457    -1.5147    -5.8493 H       
  59 H59            6.5588    -1.2273    -8.2097 H       
  60 H60            7.9384     1.0557    -8.1952 H       
@<TRIPOS>BOND
   1    1    2 ar
   2    1    6 ar
   3    1   36 1
   4    2    3 ar
   5    2   37 1
   6    3    4 ar
   7    3   38 1
   8    4    5 ar
   9    4   39 1
  10    5    6 ar
  11    5    7 1
  12    6   10 1
  13    7    8 1
  14    7   17 1
  15    8    9 2
  16    8   40 1
  17    9   10 1
  18    9   11 1
  19   10   13 2
  20   11   12 am
  21   11   16 2
  22   12   13 1
  23   12   14 1
  24   14   15 1
  25   14   41 1
  26   14   42 1
  27   15   19 ar
  28   15   23 ar
  29   17   18 1
  30   17   43 1
  31   17   44 1
  32   18   26 ar
  33   18   30 ar
  34   19   20 ar
  35   19   45 1
  36   20   21 ar
  37   20   46 1
  38   21   22 ar
  39   21   25 1
  40   22   23 ar
  41   22   47 1
  42   23   24 1
  43   24   48 1
  44   24   49 1
  45   24   50 1
  46   25   51 1
  47   25   52 1
  48   25   53 1
  49   26   27 ar
  50   26   54 1
  51   27   28 ar
  52   27   55 1
  53   28   29 ar
  54   28   31 1
  55   29   30 ar
  56   29   56 1
  57   30   57 1
  58   31   32 1
  59   31   35 1
  60   32   33 2
  61   32   58 1
  62   33   34 1
  63   33   59 1
  64   34   35 2
  65   34   60 1

#	End of record

