#	Name: ASD05740140
#	Creating user name:	WinNT
#	Creation time:	15. 06. 2019 21:02

#	Modifying user name:	WinNT
#	Modification time:	15. 06. 2019 21:02

#	Program:	/corina/corina34_cracker 3.40 0067  02.08.2006

@<TRIPOS>MOLECULE
ASD05740140
  53   54    0    0    0
SMALL
NO_CHARGES


@<TRIPOS>ATOM
   1 N1             0.0096     1.6347     0.0748 N.3     
   2 C2            -2.3892    -2.2167     1.2077 C.3     
   3 C3            -4.3218    -0.5675     1.3039 C.2     
   4 C4            -4.8946     0.6241     0.8967 C.2     
   5 C5            -3.0441    -0.9266     0.7863 C.2     
   6 C6            -2.4204    -0.0965    -0.0899 C.2     
   7 C7            -3.0436     1.1023    -0.4724 C.2     
   8 O8            -4.2462     1.4291     0.0212 O.3     
   9 C9            -1.0683    -0.4597    -0.6474 C.3     
  10 C10            0.0259     0.1632     0.2219 C.3     
  11 C11            1.4095    -0.3225    -0.2483 C.3     
  12 O12           -2.4875     1.8504    -1.2586 O.2     
  13 C13            1.4291     2.0652     0.1520 C.3     
  14 C14            2.1776     0.9616    -0.6369 C.3     
  15 N15            1.6091     3.3707    -0.4879 N.am    
  16 S16            1.5981     4.7503     0.4280 S.o2    
  17 O17            1.8284     5.8287    -0.4682 O.2     
  18 O18            0.4533     4.6667     1.2657 O.2     
  19 S19           -6.4595     0.8308     1.6760 S.3     
  20 C20           -6.3095    -0.6909     2.5333 C.2     
  21 C21           -5.1642    -1.2886     2.2470 C.2     
  22 O22           -7.2442    -1.1886     3.3842 O.3     
  23 N23            2.9158     4.6846     1.4289 N.am    
  24 C24            4.2671     4.7159     0.8640 C.3     
  25 C25           -8.4236    -0.4063     3.5821 C.3     
  26 H26           -0.4030     1.9056    -0.8053 H       
  27 H27           -2.9951    -2.6979     1.9755 H       
  28 H28           -2.3021    -2.8784     0.3459 H       
  29 H29           -1.3967    -2.0071     1.6065 H       
  30 H30           -0.9561    -1.5439    -0.6512 H       
  31 H31           -0.9819    -0.0820    -1.6662 H       
  32 H32           -0.1307    -0.1074     1.2661 H       
  33 H33            1.9238    -0.8406     0.5611 H       
  34 H34            1.3066    -0.9781    -1.1131 H       
  35 H35            1.7687     2.0955     1.1873 H       
  36 H36            3.2186     0.8994    -0.3197 H       
  37 H37            2.1103     1.1415    -1.7099 H       
  38 H38            1.7346     3.4270    -1.4481 H       
  39 H39           -4.8804    -2.2395     2.6733 H       
  40 H40            2.7928     4.6255     2.3893 H       
  41 H41            4.4062     5.6418     0.3059 H       
  42 H42            4.9991     4.6640     1.6699 H       
  43 H43            4.4013     3.8653     0.1958 H       
  44 H44           -9.0849    -0.9167     4.2823 H       
  45 H45           -8.1496     0.5684     3.9857 H       
  46 H46           -8.9359    -0.2740     2.6291 H       
  47 C47           10.5263    13.4981    11.1506 C.3     
  48 N48           10.5462    12.0332    11.1426 N.2     
  49 C49           11.0869    11.4207    10.1966 C.1     
  50 O50           11.6094    10.8287     9.2823 O.2     
  51 H51           11.5489    13.8754    11.1429 H       
  52 H52            9.9991    13.8592    10.2676 H       
  53 H53           10.0161    13.8496    12.0474 H       
@<TRIPOS>BOND
   1    1   10 1
   2    1   13 1
   3    1   26 1
   4    2    5 1
   5    2   27 1
   6    2   28 1
   7    2   29 1
   8    3    4 2
   9    3    5 1
  10    3   21 1
  11    4   19 1
  12    4    8 1
  13    5    6 2
  14    6    7 1
  15    6    9 1
  16    7    8 1
  17    7   12 2
  18    9   10 1
  19    9   30 1
  20    9   31 1
  21   10   11 1
  22   10   32 1
  23   11   14 1
  24   11   33 1
  25   11   34 1
  26   13   14 1
  27   13   15 1
  28   13   35 1
  29   14   36 1
  30   14   37 1
  31   15   16 am
  32   15   38 1
  33   16   17 2
  34   16   18 2
  35   16   23 am
  36   19   20 1
  37   20   21 2
  38   20   22 1
  39   21   39 1
  40   22   25 1
  41   23   24 1
  42   23   40 1
  43   24   41 1
  44   24   42 1
  45   24   43 1
  46   25   44 1
  47   25   45 1
  48   25   46 1
  49   47   48 1
  50   47   51 1
  51   47   52 1
  52   47   53 1
  53   48   49 2
  54   49   50 2

#	End of record

