#	Name: ASD01148478
#	Creating user name:	WinNT
#	Creation time:	15. 06. 2019 19:02

#	Modifying user name:	WinNT
#	Modification time:	15. 06. 2019 19:02

#	Program:	/corina/corina34_cracker 3.40 0067  02.08.2006

@<TRIPOS>MOLECULE
ASD01148478
  52   54    0    0    0
SMALL
NO_CHARGES


@<TRIPOS>ATOM
   1 C1             0.3640     1.8413     0.0683 C.ar    
   2 C2             0.4624     0.4645    -0.0070 C.ar    
   3 C3            -0.6817    -0.3065    -0.0945 C.ar    
   4 C4            -1.9242     0.2994    -0.1064 C.ar    
   5 C5            -2.0226     1.6761    -0.0302 C.ar    
   6 C6            -0.8787     2.4468     0.0618 C.ar    
   7 C7            -3.3771     2.3365    -0.0436 C.3     
   8 O8            -4.3694     1.4917     0.5738 O.3     
   9 C9            -3.3981     3.5759     0.8827 C.3     
  10 C10           -3.9251     3.0048     2.1854 C.2     
  11 N11           -4.4450     1.8491     1.9397 N.2     
  12 C12           -3.8553     3.6584     3.5071 C.ar    
  13 C13           -4.3825     3.0181     4.6319 C.ar    
  14 C14           -3.2572     4.9145     3.6345 C.ar    
  15 C15           -3.1922     5.5241     4.8671 C.ar    
  16 C16           -3.7243     4.8865     5.9907 C.ar    
  17 C17           -4.3175     3.6274     5.8641 C.ar    
  18 C18           -3.6545     5.5405     7.3132 C.2     
  19 O19           -4.2135     5.0397     8.2690 O.2     
  20 N20           -2.9709     6.6927     7.4600 N.am    
  21 C21           -4.8919     2.9399     7.0759 C.3     
  22 C22           -3.7868     2.7105    -1.4695 C.3     
  23 F23           -3.8257     1.5577    -2.2611 F       
  24 F24           -5.0527     3.3058    -1.4500 F       
  25 F25           -2.8566     3.6101    -2.0012 F       
  26 C26           -2.9073     7.2895     8.6668 C.2     
  27 O27           -2.2246     8.4402     8.8134 O.3     
  28 C28           -2.1985     9.0266    10.1414 C.3     
  29 O29           -3.4660     6.7889     9.6221 O.2     
  30 C30           -0.5744    -1.8073    -0.1776 C.3     
  31 F31            0.7736    -2.1808    -0.1488 F       
  32 F32           -1.2412    -2.3834     0.9090 F       
  33 F33           -1.1558    -2.2512    -1.3701 F       
  34 C34            1.6112     2.6817     0.1637 C.3     
  35 F35            2.7358     1.8496     0.1585 F       
  36 F36            1.6709     3.5533    -0.9290 F       
  37 F37            1.5847     3.4225     1.3502 F       
  38 H38            1.4331    -0.0088     0.0023 H       
  39 H39           -2.8180    -0.3029    -0.1755 H       
  40 H40           -0.9556     3.5224     0.1213 H       
  41 H41           -2.3934     3.9775     1.0145 H       
  42 H42           -4.0728     4.3384     0.4935 H       
  43 H43           -4.8412     2.0453     4.5340 H       
  44 H44           -2.8456     5.4072     2.7661 H       
  45 H45           -2.7295     6.4950     4.9657 H       
  46 H46           -2.5247     7.0925     6.6971 H       
  47 H47           -5.8996     3.3119     7.2611 H       
  48 H48           -4.9280     1.8647     6.9006 H       
  49 H49           -4.2636     3.1459     7.9425 H       
  50 H50           -3.2169     9.2475    10.4611 H       
  51 H51           -1.7427     8.3247    10.8397 H       
  52 H52           -1.6164     9.9479    10.1204 H       
@<TRIPOS>BOND
   1    1    2 ar
   2    1   34 1
   3    1    6 ar
   4    2    3 ar
   5    2   38 1
   6    3    4 ar
   7    3   30 1
   8    4    5 ar
   9    4   39 1
  10    5    6 ar
  11    5    7 1
  12    6   40 1
  13    7    8 1
  14    7    9 1
  15    7   22 1
  16    8   11 1
  17    9   10 1
  18    9   41 1
  19    9   42 1
  20   10   11 2
  21   10   12 1
  22   12   13 ar
  23   12   14 ar
  24   13   17 ar
  25   13   43 1
  26   14   15 ar
  27   14   44 1
  28   15   16 ar
  29   15   45 1
  30   16   17 ar
  31   16   18 1
  32   17   21 1
  33   18   19 2
  34   18   20 am
  35   20   26 am
  36   20   46 1
  37   21   47 1
  38   21   48 1
  39   21   49 1
  40   22   23 1
  41   22   24 1
  42   22   25 1
  43   26   27 1
  44   26   29 2
  45   27   28 1
  46   28   50 1
  47   28   51 1
  48   28   52 1
  49   30   31 1
  50   30   32 1
  51   30   33 1
  52   34   35 1
  53   34   36 1
  54   34   37 1

#	End of record

