#	Name: ASD01820057
#	Creating user name:	WinNT
#	Creation time:	15. 06. 2019 19:36

#	Modifying user name:	WinNT
#	Modification time:	15. 06. 2019 19:36

#	Program:	/corina/corina34_cracker 3.40 0067  02.08.2006

@<TRIPOS>MOLECULE
ASD01820057
  90   93    0    0    0
SMALL
NO_CHARGES


@<TRIPOS>ATOM
   1 C1            -0.0167     1.3779     0.0096 C.ar    
   2 C2             0.0021    -0.0041     0.0020 C.ar    
   3 C3             1.2065    -0.6905    -0.0132 C.ar    
   4 C4             2.3989     0.0148    -0.0209 C.ar    
   5 C5             2.3798     1.4244    -0.0131 C.ar    
   6 C6             1.1686     2.0969     0.0022 C.ar    
   7 C7             3.8260    -0.3702    -0.0371 C.2     
   8 N8             4.5720     0.7493    -0.0385 N.am    
   9 C9             3.7959     1.8480    -0.0249 C.2     
  10 O10            4.1924     2.9959    -0.0234 O.2     
  11 O11            4.2534    -1.5069    -0.0471 O.2     
  12 C12            6.0368     0.7692    -0.0519 C.3     
  13 C13            6.5334     0.7832    -1.4990 C.3     
  14 C14            8.0631     0.8041    -1.5131 C.3     
  15 N15            8.5399     0.8175    -2.9025 N.4     
  16 C16           10.0087     0.8375    -2.9160 C.3     
  17 C17           10.5053     0.8516    -4.3631 C.3     
  18 C18           12.0351     0.8724    -4.3771 C.3     
  19 N19           18.0533     0.9761    -8.7600 N.4     
  20 C20           18.5301     0.9895   -10.1494 C.3     
  21 C21           20.0599     1.0104   -10.1634 C.3     
  22 C22           20.5565     1.0244   -11.6105 C.3     
  23 N23           22.0213     1.0443   -11.6240 N.am    
  24 C24            8.0602    -0.3850    -3.5965 C.3     
  25 C25            8.0277     2.0136    -3.5844 C.3     
  26 C26           22.7974    -0.0544   -11.6366 C.2     
  27 C27           24.2134     0.3693   -11.6481 C.ar    
  28 C28           24.1943     1.7788   -11.6413 C.ar    
  29 C29           22.7672     2.1638   -11.6312 C.2     
  30 C30           25.4246    -0.3033   -11.6632 C.ar    
  31 C31           26.6099     0.4157   -11.6716 C.ar    
  32 C32           26.5912     1.7976   -11.6645 C.ar    
  33 C33           25.3868     2.4841   -11.6501 C.ar    
  34 O34           22.3397     3.3005   -11.6233 O.2     
  35 O35           22.4009    -1.2023   -11.6381 O.2     
  36 C36           18.5656    -0.2200    -8.0781 C.3     
  37 C37           18.5330     2.1786    -8.0660 C.3     
  38 C38           12.5317     0.8864    -5.8242 C.3     
  39 C39           14.0615     0.9072    -5.8382 C.3     
  40 C40           14.5581     0.9212    -7.2853 C.3     
  41 C41           16.0879     0.9421    -7.2994 C.3     
  42 C42           16.5845     0.9561    -8.7465 C.3     
  43 H43           -0.9613     1.9013     0.0169 H       
  44 H44           -0.9280    -0.5530     0.0083 H       
  45 H45            1.2151    -1.7704    -0.0187 H       
  46 H46            1.1479     3.1766     0.0078 H       
  47 H47            6.3927     1.6615     0.4630 H       
  48 H48            6.4169    -0.1183     0.4541 H       
  49 H49            6.1774    -0.1091    -2.0140 H       
  50 H50            6.1533     1.6707    -2.0050 H       
  51 H51            8.4191     1.6964    -0.9981 H       
  52 H52            8.4432    -0.0834    -1.0071 H       
  53 H53           10.3647     1.7298    -2.4010 H       
  54 H54           10.3888    -0.0500    -2.4100 H       
  55 H55           10.1494    -0.0408    -4.8780 H       
  56 H56           10.1252     1.7390    -4.8690 H       
  57 H57           12.3911     1.7647    -3.8621 H       
  58 H58           12.4152    -0.0151    -3.8711 H       
  59 H59           18.1741     0.0972   -10.6643 H       
  60 H60           18.1500     1.8770   -10.6554 H       
  61 H61           20.4159     1.9027    -9.6485 H       
  62 H62           20.4400     0.1229    -9.6574 H       
  63 H63           20.2005     0.1321   -12.1255 H       
  64 H64           20.1764     1.9119   -12.1165 H       
  65 H65            6.9703    -0.3999    -3.5865 H       
  66 H66            8.4140    -0.3750    -4.6274 H       
  67 H67            8.4403    -1.2725    -3.0905 H       
  68 H68            8.3836     2.9059    -3.0694 H       
  69 H69            8.3815     2.0236    -4.6153 H       
  70 H70            6.9378     1.9988    -3.5744 H       
  71 H71           25.4453    -1.3831   -11.6682 H       
  72 H72           27.5545    -0.1077   -11.6834 H       
  73 H73           27.5212     2.3466   -11.6707 H       
  74 H74           25.3782     3.5640   -11.6448 H       
  75 H75           19.6554    -0.2052    -8.0881 H       
  76 H76           18.2118    -0.2300    -7.0471 H       
  77 H77           18.2096    -1.1123    -8.5930 H       
  78 H78           18.1529     3.0661    -8.5719 H       
  79 H79           18.1793     2.1686    -7.0350 H       
  80 H80           19.6229     2.1935    -8.0760 H       
  81 H81           12.1758    -0.0059    -6.3392 H       
  82 H82           12.1516     1.7739    -6.3302 H       
  83 H83           14.4175     1.7995    -5.3233 H       
  84 H84           14.4416     0.0197    -5.3323 H       
  85 H85           14.2021     0.0289    -7.8003 H       
  86 H86           14.1780     1.8087    -7.7913 H       
  87 H87           16.4439     1.8344    -6.7844 H       
  88 H88           16.4680     0.0546    -6.7934 H       
  89 H89           16.2044     1.8436    -9.2525 H       
  90 H90           16.2285     0.0638    -9.2614 H       
@<TRIPOS>BOND
   1    1    2 ar
   2    1    6 ar
   3    1   43 1
   4    2    3 ar
   5    2   44 1
   6    3    4 ar
   7    3   45 1
   8    4    5 ar
   9    4    7 1
  10    5    6 ar
  11    5    9 1
  12    6   46 1
  13    7    8 am
  14    7   11 2
  15    8    9 am
  16    8   12 1
  17    9   10 2
  18   12   13 1
  19   12   47 1
  20   12   48 1
  21   13   14 1
  22   13   49 1
  23   13   50 1
  24   14   15 1
  25   14   51 1
  26   14   52 1
  27   15   16 1
  28   15   24 1
  29   15   25 1
  30   16   17 1
  31   16   53 1
  32   16   54 1
  33   17   18 1
  34   17   55 1
  35   17   56 1
  36   18   38 1
  37   18   57 1
  38   18   58 1
  39   19   20 1
  40   19   36 1
  41   19   37 1
  42   19   42 1
  43   20   21 1
  44   20   59 1
  45   20   60 1
  46   21   22 1
  47   21   61 1
  48   21   62 1
  49   22   23 1
  50   22   63 1
  51   22   64 1
  52   23   26 am
  53   23   29 am
  54   24   65 1
  55   24   66 1
  56   24   67 1
  57   25   68 1
  58   25   69 1
  59   25   70 1
  60   26   27 1
  61   26   35 2
  62   27   28 ar
  63   27   30 ar
  64   28   29 1
  65   28   33 ar
  66   29   34 2
  67   30   31 ar
  68   30   71 1
  69   31   32 ar
  70   31   72 1
  71   32   33 ar
  72   32   73 1
  73   33   74 1
  74   36   75 1
  75   36   76 1
  76   36   77 1
  77   37   78 1
  78   37   79 1
  79   37   80 1
  80   38   39 1
  81   38   81 1
  82   38   82 1
  83   39   40 1
  84   39   83 1
  85   39   84 1
  86   40   41 1
  87   40   85 1
  88   40   86 1
  89   41   42 1
  90   41   87 1
  91   41   88 1
  92   42   89 1
  93   42   90 1

#	End of record

