#	Name: ASD02320004
#	Creating user name:	WinNT
#	Creation time:	15. 06. 2019 20:20

#	Modifying user name:	WinNT
#	Modification time:	15. 06. 2019 20:20

#	Program:	/corina/corina34_cracker 3.40 0067  02.08.2006

@<TRIPOS>MOLECULE
ASD02320004
  61   63    0    0    0
SMALL
NO_CHARGES


@<TRIPOS>ATOM
   1 O1             0.0134     0.0922     0.6202 O.2     
   2 C2            -0.0101     1.2473     0.2437 C.2     
   3 O3             1.1427     1.9002     0.0014 O.3     
   4 C4             2.2912     1.1788     0.0921 C.ar    
   5 C5             2.6456     0.3059    -0.9259 C.ar    
   6 C6             3.8138    -0.4258    -0.8316 C.ar    
   7 C7             4.6292    -0.2886     0.2763 C.ar    
   8 C8             4.2779     0.5807     1.2928 C.ar    
   9 C9             3.1139     1.3187     1.2005 C.ar    
  10 C10            5.1685     0.7272     2.4996 C.3     
  11 F11            6.2805    -0.1106     2.3629 F       
  12 F12            5.5955     2.0553     2.6056 F       
  13 F13            4.4564     0.3730     3.6505 F       
  14 N14           -1.1899     1.8734     0.0632 N.am    
  15 C15           -2.4440     1.1614     0.3210 C.3     
  16 C16           -3.6257     2.0921     0.0412 C.3     
  17 O17           -3.6561     2.4242    -1.3720 O.3     
  18 C18           -2.9683     3.5166    -1.7586 C.2     
  19 O19           -2.3598     4.1735    -0.9373 O.2     
  20 C20           -2.9541     3.9147    -3.1785 C.ar    
  21 C21           -2.2411     5.0474    -3.5809 C.ar    
  22 C22           -2.2295     5.4183    -4.9122 C.ar    
  23 O23           -1.5359     6.5204    -5.3045 O.3     
  24 C24           -2.9270     4.6642    -5.8524 C.ar    
  25 C25           -3.6386     3.5355    -5.4543 C.ar    
  26 C26           -3.6489     3.1567    -4.1251 C.ar    
  27 O27           -4.3191     2.8015    -6.3751 O.3     
  28 O28           -2.9136     5.0308    -7.1608 O.3     
  29 C29           -4.9296     1.3914     0.4286 C.3     
  30 O30           -6.0394     2.3149     0.2748 O.3     
  31 C31           -7.2678     1.8509     0.5774 C.2     
  32 O32           -7.4076     0.7059     0.9593 O.2     
  33 C33           -8.4424     2.7328     0.4451 C.ar    
  34 C34           -9.7171     2.2528     0.7586 C.ar    
  35 C35          -10.8161     3.0814     0.6336 C.ar    
  36 O36          -12.0568     2.6150     0.9385 O.3     
  37 C37          -10.6543     4.3935     0.1963 C.ar    
  38 C38           -9.3856     4.8742    -0.1172 C.ar    
  39 C39           -8.2824     4.0517     0.0114 C.ar    
  40 O40           -9.2313     6.1561    -0.5445 O.3     
  41 O41          -11.7366     5.2061     0.0747 O.3     
  42 H42            2.0087     0.1981    -1.7915 H       
  43 H43            4.0899    -1.1059    -1.6238 H       
  44 H44            5.5419    -0.8614     0.3482 H       
  45 H45            2.8400     1.9975     1.9946 H       
  46 H46           -1.2087     2.7955    -0.2374 H       
  47 H47           -2.5068     0.2889    -0.3293 H       
  48 H48           -2.4725     0.8411     1.3625 H       
  49 H49           -3.5159     3.0049     0.6267 H       
  50 H50           -1.7000     5.6326    -2.8521 H       
  51 H51           -0.6182     6.3407    -5.5506 H       
  52 H52           -4.2010     2.2812    -3.8168 H       
  53 H53           -3.7988     2.0906    -6.7738 H       
  54 H54           -2.1925     4.6385    -7.6718 H       
  55 H55           -5.0836     0.5274    -0.2178 H       
  56 H56           -4.8712     1.0631     1.4663 H       
  57 H57           -9.8431     1.2352     1.0979 H       
  58 H58          -12.3101     2.7460     1.8625 H       
  59 H59           -7.2986     4.4250    -0.2319 H       
  60 H60           -9.0808     6.7927     0.1677 H       
  61 H61          -11.9443     5.7069     0.8755 H       
@<TRIPOS>BOND
   1    1    2 2
   2    2    3 1
   3    2   14 am
   4    3    4 1
   5    4    5 ar
   6    4    9 ar
   7    5    6 ar
   8    5   42 1
   9    6    7 ar
  10    6   43 1
  11    7    8 ar
  12    7   44 1
  13    8    9 ar
  14    8   10 1
  15    9   45 1
  16   10   11 1
  17   10   12 1
  18   10   13 1
  19   14   15 1
  20   14   46 1
  21   15   16 1
  22   15   47 1
  23   15   48 1
  24   16   17 1
  25   16   29 1
  26   16   49 1
  27   17   18 1
  28   18   19 2
  29   18   20 1
  30   20   21 ar
  31   20   26 ar
  32   21   22 ar
  33   21   50 1
  34   22   23 1
  35   22   24 ar
  36   23   51 1
  37   24   25 ar
  38   24   28 1
  39   25   26 ar
  40   25   27 1
  41   26   52 1
  42   27   53 1
  43   28   54 1
  44   29   30 1
  45   29   55 1
  46   29   56 1
  47   30   31 1
  48   31   32 2
  49   31   33 1
  50   33   34 ar
  51   33   39 ar
  52   34   35 ar
  53   34   57 1
  54   35   36 1
  55   35   37 ar
  56   36   58 1
  57   37   38 ar
  58   37   41 1
  59   38   39 ar
  60   38   40 1
  61   39   59 1
  62   40   60 1
  63   41   61 1

#	End of record

