#	Name: ASD01870637
#	Creating user name:	WinNT
#	Creation time:	15. 06. 2019 19:39

#	Modifying user name:	WinNT
#	Modification time:	15. 06. 2019 19:39

#	Program:	/corina/corina34_cracker 3.40 0067  02.08.2006

@<TRIPOS>MOLECULE
ASD01870637
  43   46    0    0    0
SMALL
NO_CHARGES


@<TRIPOS>ATOM
   1 C1             0.0352     1.3464    -0.2729 C.ar    
   2 C2             0.0506    -0.0348    -0.1509 C.ar    
   3 C3             1.2348    -0.7033     0.0945 C.ar    
   4 C4             2.4244    -0.0022     0.2222 C.ar    
   5 C5             1.2159     2.0599    -0.1482 C.ar    
   6 C6             1.5679     3.4939    -0.2168 C.2     
   7 C7             2.4244     1.3778     0.1022 C.ar    
   8 C8             3.4692     2.4206     0.1768 C.2     
   9 N9             2.8924     3.6201    -0.0185 N.am    
  10 C10            3.5818     4.8426    -0.0154 C.ar    
  11 C11            3.7358     5.5496     1.1693 C.ar    
  12 C12            4.4142     6.7518     1.1729 C.ar    
  13 C13            4.9431     7.2548    -0.0090 C.ar    
  14 C14            4.7894     6.5481    -1.1945 C.ar    
  15 C15            4.1150     5.3423    -1.1970 C.ar    
  16 O16            0.7913     4.4055    -0.4187 O.2     
  17 O17            4.6507     2.2270     0.3808 O.2     
  18 N18            5.6305     8.4740    -0.0052 N.am    
  19 Cl19           3.9281     4.4550    -2.6774 Cl      
  20 C20            5.5262     9.3098    -1.0574 C.2     
  21 C21            6.1626    10.6299    -1.0109 C.2     
  22 O22            4.9038     8.9686    -2.0461 O.2     
  23 O23            6.8826    11.1272     0.0159 O.3     
  24 C24            6.1353    11.5692    -2.0018 C.2     
  25 C25            6.8686    12.6708    -1.5339 C.2     
  26 C26            7.3085    12.3584    -0.2950 C.2     
  27 C27            5.4509    11.4466    -3.3388 C.3     
  28 C28           -1.2333    -0.8122    -0.2864 C.3     
  29 H29           -0.8926     1.8632    -0.4688 H       
  30 H30            1.2338    -1.7792     0.1878 H       
  31 H31            3.3468    -0.5299     0.4147 H       
  32 H32            3.3245     5.1591     2.0884 H       
  33 H33            4.5335     7.3017     2.0948 H       
  34 H34            5.2006     6.9389    -2.1135 H       
  35 H35            6.1819     8.7175     0.7548 H       
  36 H36            7.0493    13.5936    -2.0651 H       
  37 H37            7.9070    12.9957     0.3391 H       
  38 H38            4.4287    11.8164    -3.2590 H       
  39 H39            5.9930    12.0342    -4.0797 H       
  40 H40            5.4360    10.4005    -3.6448 H       
  41 H41           -1.3831    -1.0872    -1.3305 H       
  42 H42           -1.1777    -1.7145     0.3226 H       
  43 H43           -2.0677    -0.1973     0.0506 H       
@<TRIPOS>BOND
   1    1    2 ar
   2    1    5 ar
   3    1   29 1
   4    2    3 ar
   5    2   28 1
   6    3    4 ar
   7    3   30 1
   8    4    7 ar
   9    4   31 1
  10    5    7 ar
  11    5    6 1
  12    6    9 am
  13    6   16 2
  14    7    8 1
  15    8    9 am
  16    8   17 2
  17    9   10 1
  18   10   11 ar
  19   10   15 ar
  20   11   12 ar
  21   11   32 1
  22   12   13 ar
  23   12   33 1
  24   13   14 ar
  25   13   18 1
  26   14   15 ar
  27   14   34 1
  28   15   19 1
  29   18   20 am
  30   18   35 1
  31   20   21 1
  32   20   22 2
  33   21   24 2
  34   21   23 1
  35   23   26 1
  36   24   25 1
  37   24   27 1
  38   25   26 2
  39   25   36 1
  40   26   37 1
  41   27   38 1
  42   27   39 1
  43   27   40 1
  44   28   41 1
  45   28   42 1
  46   28   43 1

#	End of record

