#	Name: ASD01148742
#	Creating user name:	WinNT
#	Creation time:	15. 06. 2019 19:03

#	Modifying user name:	WinNT
#	Modification time:	15. 06. 2019 19:03

#	Program:	/corina/corina34_cracker 3.40 0067  02.08.2006

@<TRIPOS>MOLECULE
ASD01148742
  61   63    0    0    0
SMALL
NO_CHARGES


@<TRIPOS>ATOM
   1 N1            -0.0152     1.3475     0.0831 N.pl3   
   2 C2             0.0017     0.0059    -0.1105 C.2     
   3 C3             1.3168    -0.4048    -0.1566 C.2     
   4 C4             2.1200     0.7519     0.0186 C.2     
   5 C5             1.2785     1.8073     0.1626 C.2     
   6 C6             1.7974    -1.7836    -0.3509 C.2     
   7 O7             1.0002    -2.6915    -0.4901 O.2     
   8 N8             3.1205    -2.0390    -0.3745 N.am    
   9 C9             3.5985    -3.4102    -0.5678 C.3     
  10 C10            5.1284    -3.4237    -0.5544 C.3     
  11 C11            5.6276    -4.8558    -0.7562 C.3     
  12 O12            7.0565    -4.8683    -0.7436 O.3     
  13 C13            7.6280    -6.1654    -0.9253 C.3     
  14 C14            9.1540    -6.0593    -0.8946 C.3     
  15 C15            9.7659    -7.4481    -1.0890 C.3     
  16 C16           -1.1666     2.1399     0.1807 C.ar    
  17 C17           -2.0079     2.0126     1.2779 C.ar    
  18 C18           -3.1422     2.7951     1.3712 C.ar    
  19 C19           -3.4406     3.7043     0.3730 C.ar    
  20 C20           -2.6047     3.8335    -0.7210 C.ar    
  21 C21           -1.4657     3.0582    -0.8170 C.ar    
  22 S22           -4.8892     4.7000     0.4950 S.o2    
  23 O23           -5.2236     5.0862    -0.8310 O.2     
  24 O24           -5.7843     4.0029     1.3507 O.2     
  25 N25           -4.4645     6.0875     1.2931 N.am    
  26 C26           -1.2075    -0.8825    -0.2510 C.3     
  27 C27            1.6844     3.2142     0.3694 C.ar    
  28 C28            0.7894     4.1263     0.9303 C.ar    
  29 C29            1.1738     5.4372     1.1213 C.ar    
  30 C30            2.4448     5.8489     0.7573 C.ar    
  31 C31            3.3370     4.9486     0.2000 C.ar    
  32 C32            2.9659     3.6336     0.0099 C.ar    
  33 Cl33           2.9213     7.5005     1.0002 Cl      
  34 H34            3.1993     0.7861     0.0349 H       
  35 H35            3.7563    -1.3148    -0.2635 H       
  36 H36            3.2225    -4.0428     0.2363 H       
  37 H37            3.2403    -3.7883    -1.5253 H       
  38 H38            5.5044    -2.7911    -1.3585 H       
  39 H39            5.4867    -3.0456     0.4031 H       
  40 H40            5.2517    -5.4884     0.0479 H       
  41 H41            5.2694    -5.2339    -1.7137 H       
  42 H42            7.2935    -6.8252    -0.1247 H       
  43 H43            7.3112    -6.5707    -1.8863 H       
  44 H44            9.4885    -5.3995    -1.6952 H       
  45 H45            9.4708    -5.6540     0.0664 H       
  46 H46           10.8530    -7.3724    -1.0672 H       
  47 H47            9.4314    -8.1078    -0.2885 H       
  48 H48            9.4491    -7.8533    -2.0500 H       
  49 H49           -1.7757     1.3021     2.0575 H       
  50 H50           -3.7969     2.6965     2.2244 H       
  51 H51           -2.8404     4.5445    -1.4990 H       
  52 H52           -0.8107     3.1629    -1.6692 H       
  53 H53           -4.9299     6.9174     1.1044 H       
  54 H54           -3.7504     6.0703     1.9494 H       
  55 H55           -1.4887    -0.9498    -1.3019 H       
  56 H56           -0.9730    -1.8777     0.1268 H       
  57 H57           -2.0352    -0.4626     0.3205 H       
  58 H58           -0.2024     3.8064     1.2139 H       
  59 H59            0.4820     6.1440     1.5553 H       
  60 H60            4.3268     5.2755    -0.0827 H       
  61 H61            3.6643     2.9311    -0.4204 H       
@<TRIPOS>BOND
   1    1    2 1
   2    1    5 1
   3    1   16 1
   4    2    3 2
   5    2   26 1
   6    3    4 1
   7    3    6 1
   8    4    5 2
   9    4   34 1
  10    5   27 1
  11    6    7 2
  12    6    8 am
  13    8    9 1
  14    8   35 1
  15    9   10 1
  16    9   36 1
  17    9   37 1
  18   10   11 1
  19   10   38 1
  20   10   39 1
  21   11   12 1
  22   11   40 1
  23   11   41 1
  24   12   13 1
  25   13   14 1
  26   13   42 1
  27   13   43 1
  28   14   15 1
  29   14   44 1
  30   14   45 1
  31   15   46 1
  32   15   47 1
  33   15   48 1
  34   16   17 ar
  35   16   21 ar
  36   17   18 ar
  37   17   49 1
  38   18   19 ar
  39   18   50 1
  40   19   20 ar
  41   19   22 1
  42   20   21 ar
  43   20   51 1
  44   21   52 1
  45   22   23 2
  46   22   24 2
  47   22   25 am
  48   25   53 1
  49   25   54 1
  50   26   55 1
  51   26   56 1
  52   26   57 1
  53   27   28 ar
  54   27   32 ar
  55   28   29 ar
  56   28   58 1
  57   29   30 ar
  58   29   59 1
  59   30   31 ar
  60   30   33 1
  61   31   32 ar
  62   31   60 1
  63   32   61 1

#	End of record

