#	Name: ASD01208664
#	Creating user name:	WinNT
#	Creation time:	15. 06. 2019 19:10

#	Modifying user name:	WinNT
#	Modification time:	15. 06. 2019 19:10

#	Program:	/corina/corina34_cracker 3.40 0067  02.08.2006

@<TRIPOS>MOLECULE
ASD01208664
  29   30    0    0    0
SMALL
NO_CHARGES


@<TRIPOS>ATOM
   1 C1            -0.0218     1.3753    -0.1306 C.ar    
   2 C2             0.0048    -0.0120    -0.2125 C.ar    
   3 N3             1.1065     2.0559    -0.0211 N.ar    
   4 N4             1.1546    -0.6537    -0.1809 N.ar    
   5 C5             2.2925     0.0274    -0.0708 C.ar    
   6 C6             2.2632     1.4186     0.0108 C.ar    
   7 C7             3.5869    -0.6911    -0.0344 C.2     
   8 O8             4.6292    -0.0686    -0.0904 O.2     
   9 N9             3.6091    -2.0353     0.0608 N.am    
  10 C10            4.8715    -2.7800    -0.0617 C.3     
  11 C11            4.9959    -3.7274     1.1363 C.3     
  12 N12            3.7893    -4.5605     1.2251 N.3     
  13 C13            2.5945    -3.7431     1.4740 C.3     
  14 C14            2.3724    -2.7959     0.2959 C.3     
  15 C15            3.9407    -5.5984     2.2536 C.3     
  16 Cl16          -1.5394     2.2167    -0.1794 Cl      
  17 H17           -0.9188    -0.5646    -0.3019 H       
  18 H18            3.1848     1.9747     0.0998 H       
  19 H19            4.8678    -3.3574    -0.9862 H       
  20 H20            5.7092    -2.0826    -0.0656 H       
  21 H21            5.8699    -4.3656     1.0061 H       
  22 H22            5.1037    -3.1447     2.0512 H       
  23 H23            1.7267    -4.3927     1.5887 H       
  24 H24            2.7357    -3.1602     2.3842 H       
  25 H25            1.5587    -2.1090     0.5284 H       
  26 H26            2.1239    -3.3748    -0.5936 H       
  27 H27            4.1128    -5.1281     3.2218 H       
  28 H28            3.0334    -6.2007     2.2984 H       
  29 H29            4.7885    -6.2365     2.0039 H       
@<TRIPOS>BOND
   1    1    2 ar
   2    1    3 ar
   3    1   16 1
   4    2    4 ar
   5    2   17 1
   6    3    6 ar
   7    4    5 ar
   8    5    6 ar
   9    5    7 1
  10    6   18 1
  11    7    8 2
  12    7    9 am
  13    9   10 1
  14    9   14 1
  15   10   11 1
  16   10   19 1
  17   10   20 1
  18   11   12 1
  19   11   21 1
  20   11   22 1
  21   12   13 1
  22   12   15 1
  23   13   14 1
  24   13   23 1
  25   13   24 1
  26   14   25 1
  27   14   26 1
  28   15   27 1
  29   15   28 1
  30   15   29 1

#	End of record

