#	Name: ASD08710097
#	Creating user name:	WinNT
#	Creation time:	15. 06. 2019 21:19

#	Modifying user name:	WinNT
#	Modification time:	15. 06. 2019 21:19

#	Program:	/corina/corina34_cracker 3.40 0067  02.08.2006

@<TRIPOS>MOLECULE
ASD08710097
  50   52    0    0    0
SMALL
NO_CHARGES


@<TRIPOS>ATOM
   1 N1            -0.1509     1.5094    -0.3557 N.am    
   2 C2            -0.0292     0.0484    -0.4577 C.3     
   3 C3             0.2386    -0.3200    -1.9222 C.3     
   4 N4             1.3359     0.5189    -2.4243 N.am    
   5 C5             1.2142     1.9799    -2.3223 C.3     
   6 C6             0.9463     2.3483    -0.8578 C.3     
   7 S7             2.6855    -0.1698    -3.0926 S.o2    
   8 O8             3.7298     0.7849    -2.9618 O.2     
   9 O9             2.7663    -1.4872    -2.5661 O.2     
  10 C10            2.3823    -0.3420    -4.8198 C.ar    
  11 C11            2.7248     0.6786    -5.6868 C.ar    
  12 C12            2.4869     0.5435    -7.0418 C.ar    
  13 C13            1.9069    -0.6125    -7.5299 C.ar    
  14 C14            1.5652    -1.6335    -6.6629 C.ar    
  15 C15            1.8071    -1.5002    -5.3084 C.ar    
  16 C16            1.6466    -0.7594    -9.0069 C.3     
  17 F17            2.7620    -1.3383    -9.6217 F       
  18 F18            0.5286    -1.5768    -9.2044 F       
  19 F19            1.4077     0.5007    -9.5659 F       
  20 C20           -1.2515     2.0700     0.1836 C.2     
  21 O21           -2.2018     1.3747     0.4864 O.2     
  22 C22           -0.1332     4.2498     0.6486 C.ar    
  23 C23           -1.3032     3.5283     0.4068 C.ar    
  24 C24           -2.5286     4.2097     0.3784 C.ar    
  25 C25           -2.5256     5.5730     0.5922 C.ar    
  26 C26           -1.3176     6.2220     0.8269 C.ar    
  27 N27           -0.1764     5.5503     0.8475 N.ar    
  28 O28           -1.3085     7.5605     1.0375 O.3     
  29 C29           -0.0384     8.1716     1.2731 C.3     
  30 C30           -1.3301    -0.6090     0.0075 C.3     
  31 H31            0.7989    -0.2940     0.1630 H       
  32 H32            0.5212    -1.3706    -1.9893 H       
  33 H33           -0.6589    -0.1415    -2.5144 H       
  34 H34            2.1409     2.4483    -2.6537 H       
  35 H35            0.3861     2.3223    -2.9430 H       
  36 H36            0.6638     3.3989    -0.7907 H       
  37 H37            1.8438     2.1698    -0.2656 H       
  38 H38            3.1780     1.5818    -5.3056 H       
  39 H39            2.7539     1.3413    -7.7192 H       
  40 H40            1.1117    -2.5365    -7.0442 H       
  41 H41            1.5435    -2.2994    -4.6316 H       
  42 H42            0.8160     3.7355     0.6773 H       
  43 H43           -3.4518     3.6807     0.1935 H       
  44 H44           -3.4507     6.1301     0.5771 H       
  45 H45            0.4171     7.7324     2.1606 H       
  46 H46            0.6097     8.0061     0.4124 H       
  47 H47           -0.1731     9.2424     1.4259 H       
  48 H48           -2.1586    -0.2450    -0.6001 H       
  49 H49           -1.2490    -1.6907    -0.0993 H       
  50 H50           -1.5095    -0.3596     1.0533 H       
@<TRIPOS>BOND
   1    1    2 1
   2    1    6 1
   3    1   20 am
   4    2    3 1
   5    2   30 1
   6    2   31 1
   7    3    4 1
   8    3   32 1
   9    3   33 1
  10    4    5 1
  11    4    7 am
  12    5    6 1
  13    5   34 1
  14    5   35 1
  15    6   36 1
  16    6   37 1
  17    7    8 2
  18    7    9 2
  19    7   10 1
  20   10   11 ar
  21   10   15 ar
  22   11   12 ar
  23   11   38 1
  24   12   13 ar
  25   12   39 1
  26   13   14 ar
  27   13   16 1
  28   14   15 ar
  29   14   40 1
  30   15   41 1
  31   16   17 1
  32   16   18 1
  33   16   19 1
  34   20   21 2
  35   20   23 1
  36   22   23 ar
  37   22   27 ar
  38   22   42 1
  39   23   24 ar
  40   24   25 ar
  41   24   43 1
  42   25   26 ar
  43   25   44 1
  44   26   27 ar
  45   26   28 1
  46   28   29 1
  47   29   45 1
  48   29   46 1
  49   29   47 1
  50   30   48 1
  51   30   49 1
  52   30   50 1

#	End of record

