#	Name: ASD03091207
#	Creating user name:	WinNT
#	Creation time:	15. 06. 2019 20:30

#	Modifying user name:	WinNT
#	Modification time:	15. 06. 2019 20:30

#	Program:	/corina/corina34_cracker 3.40 0067  02.08.2006

@<TRIPOS>MOLECULE
ASD03091207
  48   52    0    0    0
SMALL
NO_CHARGES


@<TRIPOS>ATOM
   1 N1            -0.0352     1.3190     0.1131 N.2     
   2 C2            -0.0196     0.0283    -0.0222 C.2     
   3 N3             1.1218    -0.6938    -0.1767 N.am    
   4 C4             2.3278    -0.0797    -0.1968 C.2     
   5 C5             2.3450     1.3830    -0.0459 C.ar    
   6 C6             3.5331     2.1101    -0.0525 C.ar    
   7 C7             3.4867     3.4861     0.0942 C.ar    
   8 C8             2.2634     4.1386     0.2471 C.ar    
   9 C9             1.0913     3.4379     0.2558 C.ar    
  10 C10            1.1090     2.0490     0.1093 C.ar    
  11 O11            3.3580    -0.7135    -0.3339 O.2     
  12 N12            4.6727     4.2257     0.0895 N.3     
  13 C13            5.4787     3.9312    -1.1227 C.3     
  14 C14            6.9138     4.3601    -0.7527 C.3     
  15 C15            6.9628     4.2915     0.7975 C.3     
  16 C16            5.5526     3.8277     1.2178 C.3     
  17 N17            8.8363     3.0881    -0.0923 N.3     
  18 C18            7.8971     3.2704    -1.2282 C.3     
  19 C19            7.9710     3.1669     1.1122 C.3     
  20 C20            9.5114     1.7858    -0.1712 C.3     
  21 C21            1.0459    -2.1496    -0.3223 C.3     
  22 C22           -1.3345    -0.7079    -0.0067 C.3     
  23 C23           -2.5069    -0.0447     0.7189 C.3     
  24 C24           -2.4899    -0.1072    -0.8098 C.3     
  25 H25            4.4808     1.6057    -0.1705 H       
  26 H26            2.2429     5.2124     0.3604 H       
  27 H27            0.1518     3.9570     0.3758 H       
  28 H28            5.4475     2.8656    -1.3499 H       
  29 H29            5.1155     4.5119    -1.9706 H       
  30 H30            7.1626     5.3502    -1.1347 H       
  31 H31            7.2378     5.2448     1.2489 H       
  32 H32            5.2450     4.3303     2.1347 H       
  33 H33            5.5327     2.7461     1.3516 H       
  34 H34            7.3646     2.3418    -1.4335 H       
  35 H35            8.4347     3.6050    -2.1155 H       
  36 H36            8.5643     3.4234     1.9899 H       
  37 H37            7.4499     2.2223     1.2679 H       
  38 H38           10.0736     1.7238    -1.1029 H       
  39 H39           10.1931     1.6782     0.6725 H       
  40 H40            8.7682     0.9889    -0.1417 H       
  41 H41            0.3840    -2.3978    -1.1520 H       
  42 H42            2.0413    -2.5474    -0.5201 H       
  43 H43            0.6560    -2.5868     0.5969 H       
  44 H44           -1.2643    -1.7947     0.0388 H       
  45 H45           -3.2083    -0.6952     1.2414 H       
  46 H46           -2.3272     0.9241     1.1850 H       
  47 H47           -2.2991     0.8205    -1.3493 H       
  48 H48           -3.1802    -0.7988    -1.2929 H       
@<TRIPOS>BOND
   1    1    2 2
   2    1   10 1
   3    2    3 1
   4    2   22 1
   5    3    4 am
   6    3   21 1
   7    4    5 1
   8    4   11 2
   9    5    6 ar
  10    5   10 ar
  11    6    7 ar
  12    6   25 1
  13    7    8 ar
  14    7   12 1
  15    8    9 ar
  16    8   26 1
  17    9   10 ar
  18    9   27 1
  19   12   13 1
  20   12   16 1
  21   13   14 1
  22   13   28 1
  23   13   29 1
  24   14   15 1
  25   14   18 1
  26   14   30 1
  27   15   16 1
  28   15   19 1
  29   15   31 1
  30   16   32 1
  31   16   33 1
  32   17   18 1
  33   17   19 1
  34   17   20 1
  35   18   34 1
  36   18   35 1
  37   19   36 1
  38   19   37 1
  39   20   38 1
  40   20   39 1
  41   20   40 1
  42   21   41 1
  43   21   42 1
  44   21   43 1
  45   22   23 1
  46   22   24 1
  47   22   44 1
  48   23   24 1
  49   23   45 1
  50   23   46 1
  51   24   47 1
  52   24   48 1

#	End of record

