#	Name: ASD02560254
#	Creating user name:	WinNT
#	Creation time:	15. 06. 2019 20:24

#	Modifying user name:	WinNT
#	Modification time:	15. 06. 2019 20:24

#	Program:	/corina/corina34_cracker 3.40 0067  02.08.2006

@<TRIPOS>MOLECULE
ASD02560254
  35   37    0    0    0
SMALL
NO_CHARGES


@<TRIPOS>ATOM
   1 N1             0.0195     1.2835     0.3096 N.2     
   2 N2             0.0237     0.0004     0.2148 N.2     
   3 C3             1.2593    -0.4219     0.1011 C.2     
   4 O4             2.0560     0.6626     0.1277 O.3     
   5 C5             1.2413     1.7274     0.2606 C.2     
   6 C6             1.6680     3.1707     0.3384 C.3     
   7 N7             1.6684    -1.7377    -0.0228 N.pl3   
   8 C8             0.7352    -2.7733     0.0861 C.ar    
   9 C9             0.9349    -3.9650    -0.5994 C.ar    
  10 C10            0.0117    -4.9860    -0.4901 C.ar    
  11 C11           -1.1120    -4.8229     0.3014 C.ar    
  12 C12           -1.3137    -3.6368     0.9849 C.ar    
  13 C13           -0.3903    -2.6145     0.8841 C.ar    
  14 C14            1.9048     3.5476     1.7782 C.ar    
  15 C15            3.1595     3.3873     2.3381 C.ar    
  16 C16            3.3764     3.7340     3.6598 C.ar    
  17 C17            2.3396     4.2404     4.4209 C.ar    
  18 C18            1.0855     4.4003     3.8621 C.ar    
  19 C19            0.8688     4.0594     2.5388 C.ar    
  20 Cl20          -2.2706    -6.1085     0.4365 Cl      
  21 Cl21           4.4617     2.7508     1.3826 Cl      
  22 Cl22          -0.7061     4.2609     1.8371 Cl      
  23 C23            0.2275    -6.2788    -1.2338 C.3     
  24 F24            1.4212    -6.2056    -1.9597 F       
  25 F25            0.3014    -7.3356    -0.3200 F       
  26 F26           -0.8398    -6.4954    -2.1119 F       
  27 H27            2.5882     3.3086    -0.2293 H       
  28 H28            0.8851     3.8040    -0.0789 H       
  29 H29            2.6027    -1.9418    -0.1852 H       
  30 H30            1.8113    -4.0927    -1.2174 H       
  31 H31           -2.1917    -3.5120     1.6012 H       
  32 H32           -0.5481    -1.6891     1.4181 H       
  33 H33            4.3559     3.6086     4.0972 H       
  34 H34            2.5094     4.5109     5.4526 H       
  35 H35            0.2756     4.7954     4.4575 H       
@<TRIPOS>BOND
   1    1    2 1
   2    1    5 2
   3    2    3 2
   4    3    4 1
   5    3    7 1
   6    4    5 1
   7    5    6 1
   8    6   14 1
   9    6   27 1
  10    6   28 1
  11    7    8 1
  12    7   29 1
  13    8    9 ar
  14    8   13 ar
  15    9   10 ar
  16    9   30 1
  17   10   11 ar
  18   10   23 1
  19   11   12 ar
  20   11   20 1
  21   12   13 ar
  22   12   31 1
  23   13   32 1
  24   14   15 ar
  25   14   19 ar
  26   15   16 ar
  27   15   21 1
  28   16   17 ar
  29   16   33 1
  30   17   18 ar
  31   17   34 1
  32   18   19 ar
  33   18   35 1
  34   19   22 1
  35   23   24 1
  36   23   25 1
  37   23   26 1

#	End of record

