#	Name: ASD02030624
#	Creating user name:	WinNT
#	Creation time:	15. 06. 2019 20:15

#	Modifying user name:	WinNT
#	Modification time:	15. 06. 2019 20:15

#	Program:	/corina/corina34_cracker 3.40 0067  02.08.2006

@<TRIPOS>MOLECULE
ASD02030624
  64   67    0    0    0
SMALL
NO_CHARGES


@<TRIPOS>ATOM
   1 C1             0.1517     1.1542    -0.0903 C.ar    
   2 C2             0.0148    -0.2175    -0.0935 C.ar    
   3 C3             1.1447    -1.0203    -0.1595 C.ar    
   4 C4             2.3984    -0.4366    -0.2156 C.ar    
   5 C5             2.5345     0.9456    -0.2058 C.ar    
   6 C6             1.4100     1.7389    -0.1521 C.ar    
   7 C7             1.4844     3.2452    -0.1719 C.3     
   8 C8             3.9307     1.5091    -0.2402 C.3     
   9 C9             3.9195     2.9620    -0.7125 C.3     
  10 N10            2.8715     3.6742     0.0356 N.am    
  11 C11            0.9886     3.7617    -1.5241 C.3     
  12 O12            1.7332     3.1402    -2.5735 O.3     
  13 C13            1.4153     3.4918    -3.8480 C.ar    
  14 C14            3.1748     4.6810     0.8787 C.2     
  15 O15            4.3371     4.9682     1.0893 O.2     
  16 C16            2.0947     5.4356     1.5468 C.ar    
  17 C17            0.7677     4.2072    -6.4427 C.ar    
  18 C18            0.0884     4.7771    -5.3761 C.ar    
  19 C19            0.4114     4.4199    -4.0814 C.ar    
  20 C20            2.0987     2.9265    -4.9144 C.ar    
  21 C21            1.7757     3.2837    -6.2090 C.ar    
  22 C22            2.2709     5.9058     2.8500 C.ar    
  23 C23            0.8961     5.6863     0.8755 C.ar    
  24 C24           -0.1082     6.3913     1.5034 C.ar    
  25 C25            0.0700     6.8513     2.7993 C.ar    
  26 C26            1.2601     6.6097     3.4685 C.ar    
  27 O27            0.4497     4.5588    -7.7172 O.3     
  28 C28            1.1899     3.9324    -8.7668 C.3     
  29 C29            0.6948     4.4496   -10.1189 C.3     
  30 O30            1.0209    -2.3736    -0.1685 O.3     
  31 C31           -0.2917    -2.9062     0.0197 C.3     
  32 C32           -0.9373    -3.1650    -1.3431 C.3     
  33 C33           -0.2022    -4.2196     0.7993 C.3     
  34 F34           -0.9175     7.5417     3.4102 F       
  35 H35           -0.7274     1.7798    -0.0437 H       
  36 H36           -0.9669    -0.6651    -0.0446 H       
  37 H37            3.2781    -1.0611    -0.2671 H       
  38 H38            0.8569     3.6498     0.6223 H       
  39 H39            4.3617     1.4605     0.7598 H       
  40 H40            4.5402     0.9154    -0.9216 H       
  41 H41            4.8888     3.4207    -0.5171 H       
  42 H42            3.7008     3.0011    -1.7796 H       
  43 H43           -0.0689     3.5234    -1.6385 H       
  44 H44            1.1248     4.8421    -1.5725 H       
  45 H45           -0.6965     5.4962    -5.5580 H       
  46 H46           -0.1180     4.8631    -3.2509 H       
  47 H47            2.8837     2.2074    -4.7324 H       
  48 H48            2.3046     2.8399    -7.0395 H       
  49 H49            3.1974     5.7179     3.3723 H       
  50 H50            0.7564     5.3288    -0.1340 H       
  51 H51           -1.0354     6.5860     0.9851 H       
  52 H52            1.3953     6.9738     4.4763 H       
  53 H53            2.2486     4.1656    -8.6541 H       
  54 H54            1.0484     2.8527    -8.7169 H       
  55 H55           -0.3639     4.2164   -10.2317 H       
  56 H56            0.8364     5.5293   -10.1689 H       
  57 H57            1.2594     3.9718   -10.9196 H       
  58 H58           -0.8968    -2.1924     0.5786 H       
  59 H59           -0.3322    -3.8788    -1.9021 H       
  60 H60           -1.9385    -3.5713    -1.1996 H       
  61 H61           -1.0011    -2.2293    -1.8985 H       
  62 H62            0.2577    -4.0353     1.7701 H       
  63 H63           -1.2035    -4.6259     0.9428 H       
  64 H64            0.4028    -4.9335     0.2403 H       
@<TRIPOS>BOND
   1    1    2 ar
   2    1    6 ar
   3    1   35 1
   4    2    3 ar
   5    2   36 1
   6    3    4 ar
   7    3   30 1
   8    4    5 ar
   9    4   37 1
  10    5    6 ar
  11    5    8 1
  12    6    7 1
  13    7   10 1
  14    7   11 1
  15    7   38 1
  16    8    9 1
  17    8   39 1
  18    8   40 1
  19    9   10 1
  20    9   41 1
  21    9   42 1
  22   10   14 am
  23   11   12 1
  24   11   43 1
  25   11   44 1
  26   12   13 1
  27   13   20 ar
  28   13   19 ar
  29   14   15 2
  30   14   16 1
  31   16   23 ar
  32   16   22 ar
  33   17   18 ar
  34   17   21 ar
  35   17   27 1
  36   18   19 ar
  37   18   45 1
  38   19   46 1
  39   20   21 ar
  40   20   47 1
  41   21   48 1
  42   22   26 ar
  43   22   49 1
  44   23   24 ar
  45   23   50 1
  46   24   25 ar
  47   24   51 1
  48   25   26 ar
  49   25   34 1
  50   26   52 1
  51   27   28 1
  52   28   29 1
  53   28   53 1
  54   28   54 1
  55   29   55 1
  56   29   56 1
  57   29   57 1
  58   30   31 1
  59   31   32 1
  60   31   33 1
  61   31   58 1
  62   32   59 1
  63   32   60 1
  64   32   61 1
  65   33   62 1
  66   33   63 1
  67   33   64 1

#	End of record

