#	Name: ASD03330109
#	Creating user name:	WinNT
#	Creation time:	15. 06. 2019 20:36

#	Modifying user name:	WinNT
#	Modification time:	15. 06. 2019 20:36

#	Program:	/corina/corina34_cracker 3.40 0067  02.08.2006

@<TRIPOS>MOLECULE
ASD03330109
  30   30    0    0    0
SMALL
NO_CHARGES


@<TRIPOS>ATOM
   1 N1             0.0022     1.4920     0.0112 N.3     
   2 C2             0.0129     0.0176    -0.0212 C.3     
   3 C3             1.3748     0.0674     0.6853 C.3     
   4 C4             1.4763     1.4468     0.0194 C.3     
   5 C5             1.2886     0.1130     2.1892 C.2     
   6 O6             1.8378     1.0044     2.8013 O.2     
   7 N7             0.6012    -0.8368     2.8539 N.am    
   8 C8             2.3725    -0.9397     0.1738 C.ar    
   9 C9             3.6766    -0.9145     0.6314 C.ar    
  10 C10            4.5918    -1.8382     0.1621 C.ar    
  11 C11            4.2026    -2.7874    -0.7645 C.ar    
  12 C12            2.8982    -2.8131    -1.2214 C.ar    
  13 C13            1.9820    -1.8921    -0.7488 C.ar    
  14 H14           -0.3431     1.8703    -0.8581 H       
  15 H15           -0.7733    -0.4356     0.5827 H       
  16 H16            0.0614    -0.3942    -1.0292 H       
  17 H17            1.9153     1.4163    -0.9778 H       
  18 H18            1.9304     2.2047     0.6576 H       
  19 H19            0.1022    -1.5078     2.3624 H       
  20 H20            0.6054    -0.8493     3.8238 H       
  21 H21            3.9807    -0.1729     1.3553 H       
  22 H22            5.6109    -1.8180     0.5191 H       
  23 H23            4.9177    -3.5086    -1.1316 H       
  24 H24            2.5942    -3.5545    -1.9455 H       
  25 H25            0.9620    -1.9146    -1.1030 H       
  26 C26           11.5534     8.4129     8.8311 C.2     
  27 O27           11.5698     7.2047     8.8245 O.2     
  28 O28           12.7066     9.0998     8.8238 O.3     
  29 H29           10.6109     8.9401     8.8384 H       
  30 H30           12.6429    10.0646     8.8296 H       
@<TRIPOS>BOND
   1    1    2 1
   2    1    4 1
   3    1   14 1
   4    2    3 1
   5    2   15 1
   6    2   16 1
   7    3    4 1
   8    3    5 1
   9    3    8 1
  10    4   17 1
  11    4   18 1
  12    5    6 2
  13    5    7 am
  14    7   19 1
  15    7   20 1
  16    8    9 ar
  17    8   13 ar
  18    9   10 ar
  19    9   21 1
  20   10   11 ar
  21   10   22 1
  22   11   12 ar
  23   11   23 1
  24   12   13 ar
  25   12   24 1
  26   13   25 1
  27   26   27 2
  28   26   28 1
  29   26   29 1
  30   28   30 1

#	End of record

