#	Name: ASD04370044
#	Creating user name:	WinNT
#	Creation time:	15. 06. 2019 20:49

#	Modifying user name:	WinNT
#	Modification time:	15. 06. 2019 20:49

#	Program:	/corina/corina34_cracker 3.40 0067  02.08.2006

@<TRIPOS>MOLECULE
ASD04370044
  71   72    0    0    0
SMALL
NO_CHARGES


@<TRIPOS>ATOM
   1 C1             3.7262    -0.6620    -0.1695 C.2     
   2 C2             2.5540     0.1906    -0.5819 C.3     
   3 C3             1.2802    -0.3392     0.0798 C.3     
   4 C4             0.0696     0.4252    -0.4595 C.3     
   5 O5             3.5741    -1.5490     0.6367 O.2     
   6 O6             4.9382    -0.4394    -0.7018 O.3     
   7 N7            -1.1393    -0.0043     0.2562 N.3     
   8 C8            -2.2767     0.8699    -0.0597 C.3     
   9 C9            -1.4558    -1.4079    -0.0403 C.3     
  10 N10            1.3693    -0.1525     1.5301 N.am    
  11 C11            1.5501     1.0816     2.0408 C.2     
  12 C12            1.7590     1.2608     3.5224 C.3     
  13 C13            1.9377     2.7476     3.8362 C.3     
  14 C14            2.1497     2.9295     5.3404 C.3     
  15 C15            2.3284     4.4163     5.6542 C.3     
  16 C16            2.5405     4.5982     7.1585 C.3     
  17 C17            2.7192     6.0850     7.4722 C.3     
  18 C18            2.9313     6.2669     8.9765 C.3     
  19 O19            1.5447     2.0480     1.3079 O.2     
  20 O20            3.0981     7.6555     9.2695 O.3     
  21 C21            3.3040     7.9364    10.6554 C.3     
  22 C22            3.7661    12.1516    11.2014 C.ar    
  23 C23            2.5003    11.5727    11.2665 C.ar    
  24 C24            2.3570    10.2114    11.0898 C.ar    
  25 C25            3.4669     9.4222    10.8480 C.ar    
  26 C26            4.7258     9.9915    10.7829 C.ar    
  27 C27            4.8807    11.3517    10.9581 C.ar    
  28 C28            3.9257    13.6155    11.3845 C.ar    
  29 C29            5.1914    14.1944    11.3194 C.ar    
  30 C30            5.3341    15.5565    11.4905 C.ar    
  31 C31            4.2235    16.3465    11.7266 C.ar    
  32 C32            2.9647    15.7771    11.7926 C.ar    
  33 C33            2.8097    14.4170    11.6164 C.ar    
  34 H34            2.7253     1.2202    -0.2678 H       
  35 H35            2.4423     0.1551    -1.6655 H       
  36 H36            1.1690    -1.4002    -0.1438 H       
  37 H37            0.2193     1.4946    -0.3105 H       
  38 H38           -0.0457     0.2192    -1.5236 H       
  39 H39            5.6593    -1.0119    -0.4064 H       
  40 H40           -2.4211     0.9024    -1.1396 H       
  41 H41           -3.1771     0.4808     0.4157 H       
  42 H42           -2.0760     1.8753     0.3104 H       
  43 H43           -0.6237    -2.0409     0.2679 H       
  44 H44           -2.3549    -1.7000     0.5023 H       
  45 H45           -1.6236    -1.5241    -1.1110 H       
  46 H46            1.2982    -0.9170     2.1228 H       
  47 H47            0.8920     0.8775     4.0605 H       
  48 H48            2.6497     0.7144     3.8325 H       
  49 H49            2.8047     3.1308     3.2981 H       
  50 H50            1.0469     3.2940     3.5261 H       
  51 H51            1.2828     2.5462     5.8786 H       
  52 H52            3.0405     2.3831     5.6505 H       
  53 H53            3.1954     4.7995     5.1161 H       
  54 H54            1.4377     4.9626     5.3441 H       
  55 H55            1.6735     4.2149     7.6966 H       
  56 H56            3.4313     4.0518     7.4685 H       
  57 H57            3.5862     6.4682     6.9341 H       
  58 H58            1.8284     6.6313     7.1622 H       
  59 H59            2.0643     5.8836     9.5146 H       
  60 H60            3.8220     5.7205     9.2865 H       
  61 H61            2.4448     7.5878    11.2284 H       
  62 H62            4.2025     7.4247    11.0003 H       
  63 H63            1.6330    12.1880    11.4552 H       
  64 H64            1.3764     9.7617    11.1400 H       
  65 H65            5.5891     9.3706    10.5942 H       
  66 H66            5.8641    11.7954    10.9063 H       
  67 H67            6.0593    13.5784    11.1358 H       
  68 H68            6.3147    16.0063    11.4402 H       
  69 H69            4.3398    17.4119    11.8602 H       
  70 H70            2.1010    16.3985    11.9776 H       
  71 H71            1.8258    13.9740    11.6630 H       
@<TRIPOS>BOND
   1    1    2 1
   2    1    5 2
   3    1    6 1
   4    2    3 1
   5    2   34 1
   6    2   35 1
   7    3    4 1
   8    3   10 1
   9    3   36 1
  10    4    7 1
  11    4   37 1
  12    4   38 1
  13    6   39 1
  14    7    8 1
  15    7    9 1
  16    8   40 1
  17    8   41 1
  18    8   42 1
  19    9   43 1
  20    9   44 1
  21    9   45 1
  22   10   11 am
  23   10   46 1
  24   11   12 1
  25   11   19 2
  26   12   13 1
  27   12   47 1
  28   12   48 1
  29   13   14 1
  30   13   49 1
  31   13   50 1
  32   14   15 1
  33   14   51 1
  34   14   52 1
  35   15   16 1
  36   15   53 1
  37   15   54 1
  38   16   17 1
  39   16   55 1
  40   16   56 1
  41   17   18 1
  42   17   57 1
  43   17   58 1
  44   18   20 1
  45   18   59 1
  46   18   60 1
  47   20   21 1
  48   21   25 1
  49   21   61 1
  50   21   62 1
  51   22   23 ar
  52   22   27 ar
  53   22   28 1
  54   23   24 ar
  55   23   63 1
  56   24   25 ar
  57   24   64 1
  58   25   26 ar
  59   26   27 ar
  60   26   65 1
  61   27   66 1
  62   28   29 ar
  63   28   33 ar
  64   29   30 ar
  65   29   67 1
  66   30   31 ar
  67   30   68 1
  68   31   32 ar
  69   31   69 1
  70   32   33 ar
  71   32   70 1
  72   33   71 1

#	End of record

