#	Name: ASD09740298
#	Creating user name:	WinNT
#	Creation time:	15. 06. 2019 21:23

#	Modifying user name:	WinNT
#	Modification time:	15. 06. 2019 21:23

#	Program:	/corina/corina34_cracker 3.40 0067  02.08.2006

@<TRIPOS>MOLECULE
ASD09740298
  44   47    0    0    0
SMALL
NO_CHARGES


@<TRIPOS>ATOM
   1 N1            -0.0144     1.2085     0.0087 N.2     
   2 O2             0.0021    -0.0041     0.0020 O.3     
   3 C3             1.2067     1.6802    -0.0004 C.2     
   4 N4             2.0465     0.6236    -0.0141 N.2     
   5 C5             1.2701    -0.4443    -0.0125 C.2     
   6 C6             1.7122    -1.8535    -0.0238 C.ar    
   7 C7             1.5955     3.1112     0.0035 C.ar    
   8 C8             2.9361     3.4931    -0.0077 C.ar    
   9 C9             3.2558     4.8398    -0.0035 C.ar    
  10 N10            2.3264     5.7718     0.0109 N.ar    
  11 C11            1.0340     5.4746     0.0222 C.ar    
  12 C12            0.6237     4.1282     0.0129 C.ar    
  13 C13            3.0743    -2.1593    -0.0380 C.ar    
  14 C14            3.4855    -3.4754    -0.0491 C.ar    
  15 C15            2.5482    -4.4983    -0.0457 C.ar    
  16 C16            1.1866    -4.1999    -0.0311 C.ar    
  17 C17            0.7682    -2.8833    -0.0146 C.ar    
  18 O18            0.2702    -5.2048    -0.0284 O.3     
  19 C19           -1.9816    -6.0821    -0.0122 C.3     
  20 C20           -1.1076    -4.8263    -0.0131 C.3     
  21 O21            2.9582    -5.7935    -0.0572 O.3     
  22 C22            4.3678    -6.0277    -0.0723 C.3     
  23 C23            4.6345    -7.5342    -0.0835 C.3     
  24 N24           -0.1070     6.2414     0.0382 N.pl3   
  25 C25           -1.2126     5.4351     0.0450 C.2     
  26 C26           -0.8372     4.1448     0.0297 C.2     
  27 H27            3.7165     2.7466    -0.0193 H       
  28 H28            4.2950     5.1336    -0.0119 H       
  29 H29            3.8060    -1.3649    -0.0406 H       
  30 H30            4.5395    -3.7106    -0.0608 H       
  31 H31           -0.2864    -2.6507    -0.0029 H       
  32 H32           -1.7758    -6.6686    -0.9076 H       
  33 H33           -1.7590    -6.6790     0.8722 H       
  34 H34           -3.0326    -5.7934    -0.0006 H       
  35 H35           -1.3134    -4.2398     0.8823 H       
  36 H36           -1.3302    -4.2294    -0.8976 H       
  37 H37            4.8017    -5.5752    -0.9640 H       
  38 H38            4.8192    -5.5854     0.8158 H       
  39 H39            5.7097    -7.7128    -0.0951 H       
  40 H40            4.2006    -7.9866     0.8082 H       
  41 H41            4.1832    -7.9765    -0.9717 H       
  42 H42           -0.1256     7.2112     0.0443 H       
  43 H43           -2.2346     5.7837     0.0575 H       
  44 H44           -1.4904     3.2847     0.0304 H       
@<TRIPOS>BOND
   1    1    2 1
   2    1    3 2
   3    2    5 1
   4    3    4 1
   5    3    7 1
   6    4    5 2
   7    5    6 1
   8    6   13 ar
   9    6   17 ar
  10    7    8 ar
  11    7   12 ar
  12    8    9 ar
  13    8   27 1
  14    9   10 ar
  15    9   28 1
  16   10   11 ar
  17   11   12 ar
  18   11   24 1
  19   12   26 1
  20   13   14 ar
  21   13   29 1
  22   14   15 ar
  23   14   30 1
  24   15   16 ar
  25   15   21 1
  26   16   17 ar
  27   16   18 1
  28   17   31 1
  29   18   20 1
  30   19   20 1
  31   19   32 1
  32   19   33 1
  33   19   34 1
  34   20   35 1
  35   20   36 1
  36   21   22 1
  37   22   23 1
  38   22   37 1
  39   22   38 1
  40   23   39 1
  41   23   40 1
  42   23   41 1
  43   24   25 1
  44   24   42 1
  45   25   26 2
  46   25   43 1
  47   26   44 1

#	End of record

