#	Name: ASD04590054
#	Creating user name:	WinNT
#	Creation time:	15. 06. 2019 20:50

#	Modifying user name:	WinNT
#	Modification time:	15. 06. 2019 20:50

#	Program:	/corina/corina34_cracker 3.40 0067  02.08.2006

@<TRIPOS>MOLECULE
ASD04590054
  37   39    0    0    0
SMALL
NO_CHARGES


@<TRIPOS>ATOM
   1 N1            -0.0768     1.2682    -0.0494 N.pl3   
   2 N2            -0.0362    -0.0145     0.0019 N.2     
   3 C3             1.1929    -0.4417    -0.2149 C.2     
   4 C4             2.0015     0.7057    -0.4235 C.2     
   5 C5             1.1589     1.7669    -0.3103 C.2     
   6 C6             1.6418    -1.8463    -0.2366 C.2     
   7 O7             2.8103    -2.1080    -0.4489 O.2     
   8 N8             0.7571    -2.8400    -0.0209 N.am    
   9 C9             1.1617    -4.1747    -0.1376 C.ar    
  10 C10            2.4396    -4.5508     0.2548 C.ar    
  11 C11            2.8368    -5.8684     0.1388 C.ar    
  12 C12            1.9618    -6.8143    -0.3684 C.ar    
  13 C13            0.6872    -6.4414    -0.7607 C.ar    
  14 C14            0.2839    -5.1259    -0.6406 C.ar    
  15 F15            2.3524    -8.1027    -0.4811 F       
  16 N16            3.3783     0.7382    -0.6897 N.am    
  17 C17            4.0031     1.9196    -0.8645 C.2     
  18 C18            5.4542     1.9539    -1.1450 C.ar    
  19 C19            6.1040     3.1757    -1.3265 C.ar    
  20 C20            7.4604     3.2003    -1.5884 C.ar    
  21 C21            8.1739     2.0150    -1.6710 C.ar    
  22 C22            7.5339     0.8022    -1.4918 C.ar    
  23 C23            6.1808     0.7649    -1.2236 C.ar    
  24 O24            3.3734     2.9569    -0.7916 O.2     
  25 F25            8.0921     4.3815    -1.7645 F       
  26 H26           -0.8760     1.8035     0.0760 H       
  27 H27            1.4227     2.8095    -0.4092 H       
  28 H28           -0.1600    -2.6300     0.2151 H       
  29 H29            3.1225    -3.8133     0.6501 H       
  30 H30            3.8307    -6.1613     0.4435 H       
  31 H31            0.0065    -7.1806    -1.1564 H       
  32 H32           -0.7119    -4.8364    -0.9422 H       
  33 H33            3.8808    -0.0895    -0.7478 H       
  34 H34            5.5481     4.0994    -1.2628 H       
  35 H35            9.2339     2.0385    -1.8766 H       
  36 H36            8.0954    -0.1180    -1.5578 H       
  37 H37            5.6840    -0.1831    -1.0796 H       
@<TRIPOS>BOND
   1    1    2 1
   2    1    5 1
   3    1   26 1
   4    2    3 2
   5    3    4 1
   6    3    6 1
   7    4    5 2
   8    4   16 1
   9    5   27 1
  10    6    7 2
  11    6    8 am
  12    8    9 1
  13    8   28 1
  14    9   10 ar
  15    9   14 ar
  16   10   11 ar
  17   10   29 1
  18   11   12 ar
  19   11   30 1
  20   12   13 ar
  21   12   15 1
  22   13   14 ar
  23   13   31 1
  24   14   32 1
  25   16   17 am
  26   16   33 1
  27   17   18 1
  28   17   24 2
  29   18   19 ar
  30   18   23 ar
  31   19   20 ar
  32   19   34 1
  33   20   21 ar
  34   20   25 1
  35   21   22 ar
  36   21   35 1
  37   22   23 ar
  38   22   36 1
  39   23   37 1

#	End of record

