#	Name: ASD04910052
#	Creating user name:	WinNT
#	Creation time:	15. 06. 2019 20:55

#	Modifying user name:	WinNT
#	Modification time:	15. 06. 2019 20:55

#	Program:	/corina/corina34_cracker 3.40 0067  02.08.2006

@<TRIPOS>MOLECULE
ASD04910052
  76   78    0    0    0
SMALL
NO_CHARGES


@<TRIPOS>ATOM
   1 C1            -0.1049     1.4050    -0.3178 C.ar    
   2 C2            -0.0532     0.0178    -0.2988 C.ar    
   3 C3             1.1335    -0.6395    -0.5942 C.ar    
   4 C4             2.2649     0.0844    -0.9070 C.ar    
   5 C5             2.2160     1.4772    -0.9268 C.ar    
   6 C6             1.0231     2.1342    -0.6303 C.ar    
   7 C7             3.4315     2.2588    -1.2624 C.ar    
   8 C8             3.4664     3.0353    -2.4190 C.ar    
   9 C9             4.5996     3.7608    -2.7261 C.ar    
  10 C10            5.6996     3.7178    -1.8885 C.ar    
  11 C11            5.6707     2.9483    -0.7394 C.ar    
  12 C12            4.5405     2.2237    -0.4193 C.ar    
  13 C13            6.9343     4.5118    -2.2294 C.3     
  14 C14            6.5806     5.9986    -2.3019 C.3     
  15 C15            7.9961     4.2921    -1.1499 C.3     
  16 C16            7.4796     4.0507    -3.5825 C.3     
  17 C17            3.5529    -0.6298    -1.2265 C.3     
  18 C18            0.9662     3.6400    -0.6507 C.3     
  19 O19           -1.1660    -0.6980     0.0099 O.3     
  20 C20           -1.0771    -2.1193    -0.1096 C.3     
  21 C21           -0.8419    -2.7335     1.2718 C.3     
  22 C22           -2.3618    -2.6563    -0.6860 C.ar    
  23 C23            0.5211    -2.2859     1.8036 C.3     
  24 C24            0.7563    -2.9001     3.1850 C.3     
  25 C25           -4.7451    -2.5411    -0.8888 C.ar    
  26 C26           -3.5655    -2.0545    -0.3646 C.ar    
  27 C27           -2.3318    -3.7454    -1.5389 C.ar    
  28 C28           -3.5042    -4.2416    -2.0703 C.ar    
  29 C29           -4.7224    -3.6425    -1.7460 C.ar    
  30 C30           -5.9827    -4.1694    -2.3114 C.2     
  31 O31           -7.0418    -3.6433    -2.0301 O.2     
  32 N32           -5.9574    -5.2330    -3.1387 N.am    
  33 C33           -7.2063    -5.7551    -3.6990 C.3     
  34 C34           -6.8998    -6.9546    -4.5981 C.3     
  35 C35           -8.1845    -7.4916    -5.1744 C.2     
  36 O36           -8.1592    -8.5509    -5.9984 O.3     
  37 O37           -9.2372    -6.9687    -4.8948 O.2     
  38 F38            0.7297    -4.2954     3.0857 F       
  39 F39            2.0026    -2.4909     3.6713 F       
  40 F40           -0.2484    -2.4758     4.0612 F       
  41 H41           -1.0305     1.9135    -0.0919 H       
  42 H42            1.1708    -1.7187    -0.5786 H       
  43 H43            2.6084     3.0691    -3.0741 H       
  44 H44            4.6278     4.3630    -3.6222 H       
  45 H45            6.5325     2.9181    -0.0891 H       
  46 H46            4.5172     1.6271     0.4807 H       
  47 H47            6.1921     6.3270    -1.3379 H       
  48 H48            7.4737     6.5729    -2.5484 H       
  49 H49            5.8242     6.1551    -3.0709 H       
  50 H50            8.2480     3.2329    -1.0983 H       
  51 H51            8.8891     4.8664    -1.3965 H       
  52 H52            7.6075     4.6206    -0.1859 H       
  53 H53            6.7232     4.2072    -4.3515 H       
  54 H54            8.3727     4.6250    -3.8291 H       
  55 H55            7.7316     2.9915    -3.5309 H       
  56 H56            3.6037    -0.8256    -2.2976 H       
  57 H57            4.3969    -0.0067    -0.9306 H       
  58 H58            3.5896    -1.5736    -0.6825 H       
  59 H59            1.2127     4.0263     0.3383 H       
  60 H60            1.6826     4.0209    -1.3786 H       
  61 H61           -0.0380     3.9619    -0.9266 H       
  62 H62           -0.2476    -2.3773    -0.7680 H       
  63 H63           -1.6247    -2.4029     1.9545 H       
  64 H64           -0.8626    -3.8205     1.1944 H       
  65 H65            1.3039    -2.6165     1.1209 H       
  66 H66            0.5418    -1.1989     1.8810 H       
  67 H67           -5.6841    -2.0709    -0.6366 H       
  68 H68           -3.5816    -1.2021     0.2984 H       
  69 H69           -1.3885    -4.2078    -1.7893 H       
  70 H70           -3.4794    -5.0916    -2.7362 H       
  71 H71           -5.1123    -5.6529    -3.3632 H       
  72 H72           -7.8654    -6.0672    -2.8890 H       
  73 H73           -7.6947    -4.9769    -4.2855 H       
  74 H74           -6.2406    -6.6425    -5.4081 H       
  75 H75           -6.4114    -7.7328    -4.0116 H       
  76 H76           -9.0085    -8.8594    -6.3430 H       
@<TRIPOS>BOND
   1    1    2 ar
   2    1    6 ar
   3    1   41 1
   4    2    3 ar
   5    2   19 1
   6    3    4 ar
   7    3   42 1
   8    4    5 ar
   9    4   17 1
  10    5    6 ar
  11    5    7 1
  12    6   18 1
  13    7    8 ar
  14    7   12 ar
  15    8    9 ar
  16    8   43 1
  17    9   10 ar
  18    9   44 1
  19   10   11 ar
  20   10   13 1
  21   11   12 ar
  22   11   45 1
  23   12   46 1
  24   13   14 1
  25   13   15 1
  26   13   16 1
  27   14   47 1
  28   14   48 1
  29   14   49 1
  30   15   50 1
  31   15   51 1
  32   15   52 1
  33   16   53 1
  34   16   54 1
  35   16   55 1
  36   17   56 1
  37   17   57 1
  38   17   58 1
  39   18   59 1
  40   18   60 1
  41   18   61 1
  42   19   20 1
  43   20   21 1
  44   20   22 1
  45   20   62 1
  46   21   23 1
  47   21   63 1
  48   21   64 1
  49   22   27 ar
  50   22   26 ar
  51   23   24 1
  52   23   65 1
  53   23   66 1
  54   24   38 1
  55   24   39 1
  56   24   40 1
  57   25   26 ar
  58   25   29 ar
  59   25   67 1
  60   26   68 1
  61   27   28 ar
  62   27   69 1
  63   28   29 ar
  64   28   70 1
  65   29   30 1
  66   30   31 2
  67   30   32 am
  68   32   33 1
  69   32   71 1
  70   33   34 1
  71   33   72 1
  72   33   73 1
  73   34   35 1
  74   34   74 1
  75   34   75 1
  76   35   36 1
  77   35   37 2
  78   36   76 1

#	End of record

