#	Name: ASD06660070
#	Creating user name:	WinNT
#	Creation time:	15. 06. 2019 21:07

#	Modifying user name:	WinNT
#	Modification time:	15. 06. 2019 21:07

#	Program:	/corina/corina34_cracker 3.40 0067  02.08.2006

@<TRIPOS>MOLECULE
ASD06660070
  72   75    0    0    0
SMALL
NO_CHARGES


@<TRIPOS>ATOM
   1 C1             0.0351     1.6554     0.9531 C.2     
   2 C2            -0.0080     0.2616     0.3815 C.3     
   3 C3            -1.0853     0.1881    -0.7025 C.3     
   4 O4             1.0501     2.3068     0.8807 O.2     
   5 O5            -1.0557     2.1751     1.5377 O.3     
   6 N6             1.2949    -0.0675    -0.2018 N.am    
   7 C7             2.3229    -0.4143     0.5979 C.2     
   8 C8             3.6598    -0.6580     0.0185 C.ar    
   9 C9             4.0710    -1.9608    -0.2716 C.ar    
  10 C10            5.3193    -2.1825    -0.8121 C.ar    
  11 C11            6.1666    -1.1148    -1.0674 C.ar    
  12 C12            5.7636     0.1803    -0.7809 C.ar    
  13 C13            4.5145     0.4139    -0.2464 C.ar    
  14 O14            2.1500    -0.5267     1.7959 O.2     
  15 C15            4.0750     1.8229     0.0578 C.3     
  16 F16            7.3894    -1.3377    -1.5968 F       
  17 C17            3.1517    -3.1221     0.0062 C.3     
  18 C18            2.2227    -3.3349    -1.1907 C.3     
  19 C19           -1.2194    -1.2343    -1.1818 C.ar    
  20 C20           -2.0854    -2.1000    -0.5392 C.ar    
  21 C21           -2.2107    -3.4042    -0.9758 C.ar    
  22 C22           -1.4657    -3.8461    -2.0618 C.ar    
  23 C23           -0.5967    -2.9738    -2.7050 C.ar    
  24 C24           -0.4804    -1.6693    -2.2667 C.ar    
  25 N25           -1.5897    -5.1646    -2.5057 N.3     
  26 C26           -0.7162    -5.4158    -3.6591 C.3     
  27 C27           -0.9841    -6.8193    -4.2074 C.3     
  28 C28           -0.7179    -7.8509    -3.1076 C.3     
  29 C29           -1.6051    -7.5379    -1.8995 C.3     
  30 C30           -1.3193    -6.1136    -1.4182 C.3     
  31 C31           -1.0374    -9.2305    -3.6232 C.2     
  32 N32           -0.8773   -10.3029    -2.8226 N.am    
  33 O33           -1.4386    -9.3757    -4.7581 O.2     
  34 C34           -1.1702   -11.5676    -3.2953 C.2     
  35 N35           -1.6000   -11.7855    -4.4935 N.2     
  36 C36           -1.8199   -13.2240    -4.6976 C.3     
  37 C37           -1.4275   -13.8562    -3.3473 C.3     
  38 N38           -1.0242   -12.6954    -2.5360 N.pl3   
  39 H39           -0.2413    -0.4491     1.1743 H       
  40 H40           -2.0373     0.5246    -0.2921 H       
  41 H41           -0.8036     0.8282    -1.5386 H       
  42 H42           -0.9797     3.0725     1.8896 H       
  43 H43            1.4178    -0.0359    -1.1634 H       
  44 H44            5.6383    -3.1895    -1.0368 H       
  45 H45            6.4276     1.0082    -0.9814 H       
  46 H46            4.3636     2.0816     1.0766 H       
  47 H47            4.5515     2.5109    -0.6406 H       
  48 H48            2.9921     1.8954    -0.0425 H       
  49 H49            3.7434    -4.0225     0.1715 H       
  50 H50            2.5568    -2.9101     0.8946 H       
  51 H51            1.7035    -2.4038    -1.4177 H       
  52 H52            2.8096    -3.6439    -2.0557 H       
  53 H53            1.4932    -4.1087    -0.9514 H       
  54 H54           -2.6640    -1.7559     0.3053 H       
  55 H55           -2.8869    -4.0799    -0.4733 H       
  56 H56           -0.0160    -3.3141    -3.5496 H       
  57 H57            0.1914    -0.9893    -2.7693 H       
  58 H58           -0.9186    -4.6780    -4.4355 H       
  59 H59            0.3259    -5.3399    -3.3489 H       
  60 H60           -2.0225    -6.8917    -4.5306 H       
  61 H61           -0.3247    -7.0114    -5.0538 H       
  62 H62            0.3301    -7.8054    -2.8114 H       
  63 H63           -2.6534    -7.6216    -2.1865 H       
  64 H64           -1.3894    -8.2434    -1.0971 H       
  65 H65           -0.2743    -6.0344    -1.1185 H       
  66 H66           -1.9596    -5.8825    -0.5670 H       
  67 H67           -0.5564   -10.1867    -1.9147 H       
  68 H68           -2.8679   -13.4224    -4.9222 H       
  69 H69           -1.1793   -13.5992    -5.4957 H       
  70 H70           -2.2803   -14.3658    -2.8988 H       
  71 H71           -0.5903   -14.5428    -3.4728 H       
  72 H72           -0.7109   -12.7254    -1.6185 H       
@<TRIPOS>BOND
   1    1    2 1
   2    1    4 2
   3    1    5 1
   4    2    3 1
   5    2    6 1
   6    2   39 1
   7    3   19 1
   8    3   40 1
   9    3   41 1
  10    5   42 1
  11    6    7 am
  12    6   43 1
  13    7    8 1
  14    7   14 2
  15    8    9 ar
  16    8   13 ar
  17    9   10 ar
  18    9   17 1
  19   10   11 ar
  20   10   44 1
  21   11   12 ar
  22   11   16 1
  23   12   13 ar
  24   12   45 1
  25   13   15 1
  26   15   46 1
  27   15   47 1
  28   15   48 1
  29   17   18 1
  30   17   49 1
  31   17   50 1
  32   18   51 1
  33   18   52 1
  34   18   53 1
  35   19   20 ar
  36   19   24 ar
  37   20   21 ar
  38   20   54 1
  39   21   22 ar
  40   21   55 1
  41   22   23 ar
  42   22   25 1
  43   23   24 ar
  44   23   56 1
  45   24   57 1
  46   25   26 1
  47   25   30 1
  48   26   27 1
  49   26   58 1
  50   26   59 1
  51   27   28 1
  52   27   60 1
  53   27   61 1
  54   28   29 1
  55   28   31 1
  56   28   62 1
  57   29   30 1
  58   29   63 1
  59   29   64 1
  60   30   65 1
  61   30   66 1
  62   31   32 am
  63   31   33 2
  64   32   34 1
  65   32   67 1
  66   34   35 2
  67   34   38 1
  68   35   36 1
  69   36   37 1
  70   36   68 1
  71   36   69 1
  72   37   38 1
  73   37   70 1
  74   37   71 1
  75   38   72 1

#	End of record

