#	Name: ASD03331719
#	Creating user name:	WinNT
#	Creation time:	15. 06. 2019 20:39

#	Modifying user name:	WinNT
#	Modification time:	15. 06. 2019 20:39

#	Program:	/corina/corina34_cracker 3.40 0067  02.08.2006

@<TRIPOS>MOLECULE
ASD03331719
  56   59    0    0    0
SMALL
NO_CHARGES


@<TRIPOS>ATOM
   1 C1            -0.0164     1.3615     0.0095 C.ar    
   2 C2             0.0021    -0.0041     0.0020 C.ar    
   3 C3             1.2080    -0.6950    -0.0127 C.ar    
   4 C4             2.4059    -0.0158    -0.0201 C.ar    
   5 C5             1.1892     2.0745     0.0018 C.ar    
   6 C6             1.5022     3.4554     0.0058 C.2     
   7 C7             2.4125     1.3760    -0.0131 C.ar    
   8 N8             3.4200     2.3121    -0.0179 N.pl3   
   9 C9             2.8557     3.5730    -0.0067 C.2     
  10 C10            3.6012     4.8406    -0.0080 C.2     
  11 N11            4.9488     4.8298    -0.0211 N.am    
  12 O12            3.0015     5.8989     0.0028 O.2     
  13 C13            5.6915     6.0926    -0.0223 C.3     
  14 C14            7.1934     5.8010    -0.0382 C.3     
  15 C15            7.9573     7.1000    -0.0395 C.ar    
  16 C16            8.9905     8.8937    -1.2432 C.ar    
  17 C17            8.2905     7.7032    -1.2384 C.ar    
  18 C18            8.3186     7.6890     1.1584 C.ar    
  19 C19            9.0184     8.8797     1.1608 C.ar    
  20 C20            9.3596     9.4854    -0.0418 C.ar    
  21 C21            0.5116     4.5910     0.0208 C.3     
  22 Cl22          -1.4939    -0.8847     0.0116 Cl      
  23 N23            0.2036     4.9521     1.4067 N.pl3   
  24 N24           -0.6021     5.8770     1.6473 N.1     
  25 N25           -1.2682     6.6418     1.8463 N.1     
  26 N26           10.0677    10.6893    -0.0430 N.3     
  27 C27           10.3529    11.1334     1.3273 C.3     
  28 C28           11.2509    12.3720     1.2871 C.3     
  29 C29           10.5440    13.4839     0.5070 C.3     
  30 C30           10.2149    12.9791    -0.9007 C.3     
  31 C31            9.3470    11.7230    -0.7970 C.3     
  32 H32           -0.9582     1.8902     0.0169 H       
  33 H33            1.2056    -1.7750    -0.0182 H       
  34 H34            3.3377    -0.5617    -0.0308 H       
  35 H35            4.3705     2.1188    -0.0269 H       
  36 H36            5.4270     3.9859    -0.0297 H       
  37 H37            5.4242     6.6705    -0.9070 H       
  38 H38            5.4414     6.6621     0.8728 H       
  39 H39            7.4607     5.2232     0.8465 H       
  40 H40            7.4434     5.2316    -0.9334 H       
  41 H41            9.2501     9.3644    -2.1799 H       
  42 H42            8.0033     7.2426    -2.1721 H       
  43 H43            8.0530     7.2176     2.0930 H       
  44 H44            9.2996     9.3395     2.0967 H       
  45 H45            0.9387     5.4524    -0.4928 H       
  46 H46           -0.4027     4.2823    -0.4861 H       
  47 H47            9.4182    11.3788     1.8316 H       
  48 H48           10.8593    10.3351     1.8698 H       
  49 H49           11.4496    12.7106     2.3039 H       
  50 H50           12.1914    12.1237     0.7952 H       
  51 H51            9.6224    13.7594     1.0198 H       
  52 H52           11.1978    14.3533     0.4386 H       
  53 H53            9.6735    13.7515    -1.4469 H       
  54 H54           11.1392    12.7404    -1.4270 H       
  55 H55            9.1228    11.3529    -1.7974 H       
  56 H56            8.4170    11.9656    -0.2828 H       
@<TRIPOS>BOND
   1    1    2 ar
   2    1    5 ar
   3    1   32 1
   4    2    3 ar
   5    2   22 1
   6    3    4 ar
   7    3   33 1
   8    4    7 ar
   9    4   34 1
  10    5    7 ar
  11    5    6 1
  12    6    9 2
  13    6   21 1
  14    7    8 1
  15    8    9 1
  16    8   35 1
  17    9   10 1
  18   10   11 am
  19   10   12 2
  20   11   13 1
  21   11   36 1
  22   13   14 1
  23   13   37 1
  24   13   38 1
  25   14   15 1
  26   14   39 1
  27   14   40 1
  28   15   18 ar
  29   15   17 ar
  30   16   17 ar
  31   16   20 ar
  32   16   41 1
  33   17   42 1
  34   18   19 ar
  35   18   43 1
  36   19   20 ar
  37   19   44 1
  38   20   26 1
  39   21   23 1
  40   21   45 1
  41   21   46 1
  42   23   24 1
  43   24   25 3
  44   26   27 1
  45   26   31 1
  46   27   28 1
  47   27   47 1
  48   27   48 1
  49   28   29 1
  50   28   49 1
  51   28   50 1
  52   29   30 1
  53   29   51 1
  54   29   52 1
  55   30   31 1
  56   30   53 1
  57   30   54 1
  58   31   55 1
  59   31   56 1

#	End of record

