#	Name: ASD01830031
#	Creating user name:	WinNT
#	Creation time:	15. 06. 2019 19:36

#	Modifying user name:	WinNT
#	Modification time:	15. 06. 2019 19:36

#	Program:	/corina/corina34_cracker 3.40 0067  02.08.2006

@<TRIPOS>MOLECULE
ASD01830031
  44   46    0    0    0
SMALL
NO_CHARGES


@<TRIPOS>ATOM
   1 C1            -0.0178     1.4648     0.0101 C.3     
   2 N2             0.0021    -0.0041     0.0020 N.3     
   3 C3             0.7149    -0.5340     1.1948 C.3     
   4 C4             0.4342    -2.0438     1.2598 C.3     
   5 C5             1.0445    -2.7151     0.0260 C.3     
   6 C6             0.5311    -2.0287    -1.2430 C.3     
   7 C7             0.8053    -0.5199    -1.1383 C.3     
   8 C8             2.2716    -0.3361    -0.6840 C.3     
   9 C9             2.2119    -0.3454     0.8576 C.3     
  10 O10            2.4913    -2.6057     0.0828 O.3     
  11 C11            3.1998    -3.5875    -0.4966 C.2     
  12 O12            2.6300    -4.5080    -1.0332 O.2     
  13 C13            4.7060    -3.5419    -0.4775 C.3     
  14 C14            5.2542    -4.7517    -1.1896 C.ar    
  15 C15            5.1868    -2.2729    -1.1841 C.3     
  16 O16            4.7645    -1.1262    -0.4433 O.3     
  17 C17            6.0678    -5.6418    -0.5138 C.ar    
  18 C18            6.5707    -6.7514    -1.1670 C.ar    
  19 C19            6.2597    -6.9712    -2.4958 C.ar    
  20 C20            5.4454    -6.0816    -3.1714 C.ar    
  21 C21            4.9389    -4.9743    -2.5170 C.ar    
  22 H22            1.0047     1.8421     0.0024 H       
  23 H23           -0.5450     1.8259    -0.8730 H       
  24 H24           -0.5280     1.8163     0.9069 H       
  25 H25            0.4220    -0.0221     2.1115 H       
  26 H26            0.8832    -2.4602     2.1615 H       
  27 H27           -0.6422    -2.2148     1.2734 H       
  28 H28            0.7617    -3.7676     0.0087 H       
  29 H29            1.0487    -2.4344    -2.1123 H       
  30 H30           -0.5409    -2.1990    -1.3419 H       
  31 H31            0.5840     0.0031    -2.0687 H       
  32 H32            2.8867    -1.1605    -1.0448 H       
  33 H33            2.6634     0.6157    -1.0428 H       
  34 H34            2.5743     0.6019     1.2570 H       
  35 H35            2.7976    -1.1743     1.2550 H       
  36 H36            5.0564    -3.5381     0.5546 H       
  37 H37            6.2748    -2.2831    -1.2489 H       
  38 H38            4.7634    -2.2332    -2.1877 H       
  39 H39            5.0349    -0.2840    -0.8340 H       
  40 H40            6.3109    -5.4700     0.5244 H       
  41 H41            7.2070    -7.4464    -0.6392 H       
  42 H42            6.6532    -7.8378    -3.0064 H       
  43 H43            5.2026    -6.2531    -4.2097 H       
  44 H44            4.3027    -4.2792    -3.0448 H       
@<TRIPOS>BOND
   1    1    2 1
   2    1   22 1
   3    1   23 1
   4    1   24 1
   5    2    3 1
   6    2    7 1
   7    3    4 1
   8    3    9 1
   9    3   25 1
  10    4    5 1
  11    4   26 1
  12    4   27 1
  13    5    6 1
  14    5   10 1
  15    5   28 1
  16    6    7 1
  17    6   29 1
  18    6   30 1
  19    7    8 1
  20    7   31 1
  21    8    9 1
  22    8   32 1
  23    8   33 1
  24    9   34 1
  25    9   35 1
  26   10   11 1
  27   11   12 2
  28   11   13 1
  29   13   14 1
  30   13   15 1
  31   13   36 1
  32   14   17 ar
  33   14   21 ar
  34   15   16 1
  35   15   37 1
  36   15   38 1
  37   16   39 1
  38   17   18 ar
  39   17   40 1
  40   18   19 ar
  41   18   41 1
  42   19   20 ar
  43   19   42 1
  44   20   21 ar
  45   20   43 1
  46   21   44 1

#	End of record

