#	Name: ASD04590376
#	Creating user name:	WinNT
#	Creation time:	15. 06. 2019 20:50

#	Modifying user name:	WinNT
#	Modification time:	15. 06. 2019 20:50

#	Program:	/corina/corina34_cracker 3.40 0067  02.08.2006

@<TRIPOS>MOLECULE
ASD04590376
  32   35    0    0    0
SMALL
NO_CHARGES


@<TRIPOS>ATOM
   1 C1            -0.0167     1.3832     0.0096 C.ar    
   2 C2             0.0021    -0.0041     0.0020 C.ar    
   3 C3             1.1969    -0.6869    -0.0126 C.ar    
   4 C4             2.4020     0.0223    -0.0203 C.ar    
   5 C5             2.3769     1.4283    -0.0129 C.ar    
   6 C6             1.1624     2.0986     0.0022 C.ar    
   7 N7             3.7040    -0.3552    -0.0343 N.2     
   8 C8             4.4709     0.7083    -0.0361 C.2     
   9 N9             3.6969     1.8375    -0.0232 N.pl3   
  10 C10            5.9483     0.6906    -0.0500 C.2     
  11 C11            6.7655    -0.4630    -0.0639 C.2     
  12 C12            8.0575    -0.0542    -0.0737 C.2     
  13 N13            8.0646     1.3049    -0.0664 N.pl3   
  14 N14            6.7361     1.7481    -0.0573 N.2     
  15 N15            6.3181    -1.7954    -0.0666 N.am    
  16 C16            6.0810    -2.5367     1.0235 C.2     
  17 O17            6.2333    -2.1190     2.1553 O.2     
  18 C18            6.0297    -2.5949    -1.2667 C.3     
  19 C19            5.5815    -3.9575    -0.7035 C.3     
  20 N20            5.6607    -3.7797     0.7541 N.am    
  21 H21           -0.9614     1.9066     0.0169 H       
  22 H22           -0.9283    -0.5525     0.0079 H       
  23 H23            1.2037    -1.7669    -0.0177 H       
  24 H24            1.1403     3.1784     0.0075 H       
  25 H25            4.0156     2.7537    -0.0218 H       
  26 H26            8.9270    -0.6947    -0.0854 H       
  27 H27            8.8531     1.8699    -0.0706 H       
  28 H28            5.2280    -2.1383    -1.8471 H       
  29 H29            6.9268    -2.7088    -1.8752 H       
  30 H30            4.5571    -4.1776    -1.0043 H       
  31 H31            6.2560    -4.7480    -1.0324 H       
  32 H32            5.4434    -4.4552     1.4154 H       
@<TRIPOS>BOND
   1    1    2 ar
   2    1    6 ar
   3    1   21 1
   4    2    3 ar
   5    2   22 1
   6    3    4 ar
   7    3   23 1
   8    4    5 ar
   9    4    7 1
  10    5    6 ar
  11    5    9 1
  12    6   24 1
  13    7    8 2
  14    8    9 1
  15    8   10 1
  16    9   25 1
  17   10   11 1
  18   10   14 2
  19   11   12 2
  20   11   15 1
  21   12   13 1
  22   12   26 1
  23   13   14 1
  24   13   27 1
  25   15   16 am
  26   15   18 1
  27   16   17 2
  28   16   20 am
  29   18   19 1
  30   18   28 1
  31   18   29 1
  32   19   20 1
  33   19   30 1
  34   19   31 1
  35   20   32 1

#	End of record

