#	Name: ASD01910260
#	Creating user name:	WinNT
#	Creation time:	15. 06. 2019 19:55

#	Modifying user name:	WinNT
#	Modification time:	15. 06. 2019 19:55

#	Program:	/corina/corina34_cracker 3.40 0067  02.08.2006

@<TRIPOS>MOLECULE
ASD01910260
  44   47    0    0    0
SMALL
NO_CHARGES


@<TRIPOS>ATOM
   1 C1             0.6232     0.5055     0.4139 C.2     
   2 C2             1.8008     1.4458     0.3994 C.3     
   3 C3             2.1177     1.8453    -1.0435 C.3     
   4 C4             3.3338     2.7742    -1.0620 C.3     
   5 C5             3.0133     4.0444    -0.2679 C.3     
   6 N6             2.5676     3.6605     1.0785 N.am    
   7 C7             1.4629     2.7009     1.2101 C.3     
   8 C8             3.1610     4.1788     2.1720 C.2     
   9 O9             2.7388     3.9069     3.2791 O.2     
  10 N10            0.6125    -0.7207     0.8741 N.2     
  11 C11           -0.6479    -1.1708     0.6793 C.2     
  12 N12           -1.3217    -0.2004     0.1176 N.2     
  13 O13           -0.6080     0.7683    -0.0354 O.3     
  14 C14           -1.1683    -2.5132     1.0352 C.ar    
  15 C15           -2.4994    -2.8408     0.7738 C.ar    
  16 C16           -2.9780    -4.0942     1.1082 C.ar    
  17 C17           -2.1410    -5.0220     1.7007 C.ar    
  18 C18           -0.8211    -4.7038     1.9629 C.ar    
  19 C19           -0.3276    -3.4564     1.6277 C.ar    
  20 C20            4.3243     5.0773     2.0253 C.ar    
  21 C21            4.2631     6.1663     1.1531 C.ar    
  22 C22            5.3515     7.0015     1.0200 C.ar    
  23 C23            6.5057     6.7620     1.7501 C.ar    
  24 C24            6.5720     5.6820     2.6171 C.ar    
  25 C25            5.4873     4.8441     2.7625 C.ar    
  26 F26            7.5696     7.5837     1.6159 F       
  27 F27           -3.3186    -1.9353     0.1958 F       
  28 F28            0.9624    -3.1473     1.8841 F       
  29 H29            2.6670     0.9508     0.8385 H       
  30 H30            2.3345     0.9516    -1.6286 H       
  31 H31            1.2598     2.3617    -1.4741 H       
  32 H32            4.1858     2.2672    -0.6090 H       
  33 H33            3.5733     3.0397    -2.0918 H       
  34 H34            3.9067     4.6645    -0.1941 H       
  35 H35            2.2213     4.5995    -0.7706 H       
  36 H36            0.5444     3.1464     0.8280 H       
  37 H37            1.3333     2.4345     2.2591 H       
  38 H38           -4.0079    -4.3491     0.9064 H       
  39 H39           -2.5201    -5.9994     1.9601 H       
  40 H40           -0.1730    -5.4328     2.4265 H       
  41 H41            3.3647     6.3535     0.5838 H       
  42 H42            5.3053     7.8438     0.3456 H       
  43 H43            7.4736     5.4997     3.1831 H       
  44 H44            5.5398     4.0033     3.4383 H       
@<TRIPOS>BOND
   1    1   10 2
   2    1    2 1
   3    1   13 1
   4    2    3 1
   5    2    7 1
   6    2   29 1
   7    3    4 1
   8    3   30 1
   9    3   31 1
  10    4    5 1
  11    4   32 1
  12    4   33 1
  13    5    6 1
  14    5   34 1
  15    5   35 1
  16    6    7 1
  17    6    8 am
  18    7   36 1
  19    7   37 1
  20    8    9 2
  21    8   20 1
  22   10   11 1
  23   11   12 2
  24   11   14 1
  25   12   13 1
  26   14   15 ar
  27   14   19 ar
  28   15   16 ar
  29   15   27 1
  30   16   17 ar
  31   16   38 1
  32   17   18 ar
  33   17   39 1
  34   18   19 ar
  35   18   40 1
  36   19   28 1
  37   20   21 ar
  38   20   25 ar
  39   21   22 ar
  40   21   41 1
  41   22   23 ar
  42   22   42 1
  43   23   24 ar
  44   23   26 1
  45   24   25 ar
  46   24   43 1
  47   25   44 1

#	End of record

