#	Name: ASD01020010
#	Creating user name:	WinNT
#	Creation time:	15. 06. 2019 18:56

#	Modifying user name:	WinNT
#	Modification time:	15. 06. 2019 18:56

#	Program:	/corina/corina34_cracker 3.40 0067  02.08.2006

@<TRIPOS>MOLECULE
ASD01020010
  41   44    0    0    0
SMALL
NO_CHARGES


@<TRIPOS>ATOM
   1 C1             1.2139     0.6524    -1.1203 C.ar    
   2 C2             1.6144    -0.6643    -1.2198 C.ar    
   3 C3             2.9319    -1.0133    -0.9825 C.ar    
   4 C4             3.8593    -0.0422    -0.6427 C.ar    
   5 C5             2.1427     1.6367    -0.7788 C.ar    
   6 C6             2.0234     3.0962    -0.5983 C.2     
   7 C7             3.4706     1.2731    -0.5412 C.ar    
   8 C8             4.2066     2.5448    -0.2006 C.3     
   9 N9             3.2140     3.6236    -0.2650 N.am    
  10 O10            0.9955     3.7310    -0.7326 O.2     
  11 C11            3.4773     5.0416    -0.0081 C.3     
  12 C12            3.2765     5.8280    -1.2779 C.2     
  13 C13            2.5291     5.5449     1.0497 C.ar    
  14 N14            3.7934     7.0675    -1.3918 N.am    
  15 O15            2.6499     5.3454    -2.1973 O.2     
  16 C16            3.5165     7.8352    -2.5169 C.2     
  17 C17            1.4606     6.3461     0.6953 C.ar    
  18 C18            2.7253     5.1994     2.3784 C.ar    
  19 C19            1.8512     5.6632     3.3507 C.ar    
  20 C20            0.7869     6.4683     2.9944 C.ar    
  21 C21            0.5894     6.8085     1.6667 C.ar    
  22 C22            2.8062     8.8804    -4.6301 C.2     
  23 S23            2.5336     7.3376    -3.8244 S.3     
  24 N24            3.9613     9.0348    -2.7250 N.2     
  25 C25            3.5975     9.6201    -3.8508 C.2     
  26 O26            3.7730     4.4066     2.7276 O.3     
  27 F27           -0.4547     7.5922     1.3189 F       
  28 H28            0.1853     0.9212    -1.3104 H       
  29 H29            0.8959    -1.4261    -1.4840 H       
  30 H30            3.2380    -2.0460    -1.0619 H       
  31 H31            4.8870    -0.3179    -0.4573 H       
  32 H32            4.6237     2.4785     0.8042 H       
  33 H33            5.0009     2.7234    -0.9254 H       
  34 H34            4.5041     5.1639     0.3366 H       
  35 H35            4.3586     7.4237    -0.6886 H       
  36 H36            1.3052     6.6119    -0.3398 H       
  37 H37            2.0027     5.3946     4.3858 H       
  38 H38            0.1061     6.8292     3.7511 H       
  39 H39            2.4015     9.1768    -5.5866 H       
  40 H40            3.9160    10.6163    -4.1202 H       
  41 H41            4.5571     4.8946     3.0142 H       
@<TRIPOS>BOND
   1    1    2 ar
   2    1    5 ar
   3    1   28 1
   4    2    3 ar
   5    2   29 1
   6    3    4 ar
   7    3   30 1
   8    4    7 ar
   9    4   31 1
  10    5    7 ar
  11    5    6 1
  12    6    9 am
  13    6   10 2
  14    7    8 1
  15    8    9 1
  16    8   32 1
  17    8   33 1
  18    9   11 1
  19   11   12 1
  20   11   13 1
  21   11   34 1
  22   12   14 am
  23   12   15 2
  24   13   18 ar
  25   13   17 ar
  26   14   16 1
  27   14   35 1
  28   16   24 2
  29   16   23 1
  30   17   21 ar
  31   17   36 1
  32   18   19 ar
  33   18   26 1
  34   19   20 ar
  35   19   37 1
  36   20   21 ar
  37   20   38 1
  38   21   27 1
  39   22   23 1
  40   22   25 2
  41   22   39 1
  42   24   25 1
  43   25   40 1
  44   26   41 1

#	End of record

