#	Name: ASD00230019
#	Creating user name:	WinNT
#	Creation time:	15. 06. 2019 18:33

#	Modifying user name:	WinNT
#	Modification time:	15. 06. 2019 18:33

#	Program:	/corina/corina34_cracker 3.40 0067  02.08.2006

@<TRIPOS>MOLECULE
ASD00230019
  27   26    0    0    0
SMALL
NO_CHARGES


@<TRIPOS>ATOM
   1 N1            -0.0173    -0.0119     0.1605 Du      
   2 C2            -0.5151     1.3884    -0.0435 C.3     
   3 C3             0.6765     2.3387    -0.1776 C.3     
   4 O4             1.3980     2.0405    -1.4019 O.3     
   5 C5             2.4786     2.7901    -1.6704 C.2     
   6 C6             3.2777     2.5387    -2.9231 C.3     
   7 O7             2.8106     3.6665    -0.9077 O.2     
   8 C8            -1.3721    -0.4210     0.6577 C.3     
   9 C9             0.3063    -0.1097    -1.3009 C.3     
  10 C10            0.4804    -1.4121     0.3645 C.3     
  11 H11            0.7388     0.3600     0.8676 H       
  12 H12           -1.1178     1.4311    -0.9506 H       
  13 H13           -1.1228     1.6860     0.8110 H       
  14 H14            0.3187     3.3679    -0.2083 H       
  15 H15            1.3415     2.2105     0.6765 H       
  16 H16            2.8799     3.1463    -3.7359 H       
  17 H17            4.3205     2.8036    -2.7481 H       
  18 H18            3.2108     1.4843    -3.1913 H       
  19 H19           -2.1355     0.1910     0.1774 H       
  20 H20           -1.5449    -1.4705     0.4195 H       
  21 H21           -1.4204    -0.2808     1.7376 H       
  22 H22           -0.2188     0.6768    -1.8428 H       
  23 H23            1.3808     0.0058    -1.4436 H       
  24 H24           -0.0077    -1.0829    -1.6782 H       
  25 H25            1.5292    -1.4709     0.0733 H       
  26 H26            0.3793    -1.6842     1.4152 H       
  27 H27           -0.1054    -2.0986    -0.2466 H       
@<TRIPOS>BOND
   1    1    2 1
   2    1    8 1
   3    1    9 1
   4    1   10 1
   5    1   11 1
   6    2    3 1
   7    2   12 1
   8    2   13 1
   9    3    4 1
  10    3   14 1
  11    3   15 1
  12    4    5 1
  13    5    6 1
  14    5    7 2
  15    6   16 1
  16    6   17 1
  17    6   18 1
  18    8   19 1
  19    8   20 1
  20    8   21 1
  21    9   22 1
  22    9   23 1
  23    9   24 1
  24   10   25 1
  25   10   26 1
  26   10   27 1

#	End of record

