#	Name: ASD01811945
#	Creating user name:	WinNT
#	Creation time:	15. 06. 2019 19:27

#	Modifying user name:	WinNT
#	Modification time:	15. 06. 2019 19:27

#	Program:	/corina/corina34_cracker 3.40 0067  02.08.2006

@<TRIPOS>MOLECULE
ASD01811945
  62   66    0    0    0
SMALL
NO_CHARGES


@<TRIPOS>ATOM
   1 C1            -0.0166     1.3724     0.0096 C.ar    
   2 C2             0.0021    -0.0041     0.0020 C.ar    
   3 C3             1.2043    -0.6993    -0.0132 C.ar    
   4 C4             2.4046    -0.0233    -0.0210 C.ar    
   5 C5             2.4078     1.3701    -0.0136 C.ar    
   6 C6             1.1870     2.0804     0.0019 C.ar    
   7 C7             2.3344     4.0944     0.0009 C.2     
   8 N8             1.2150     3.4367     0.0085 N.2     
   9 C9             3.6573     2.1452    -0.0209 C.2     
  10 N10            3.5533     3.4947    -0.0122 N.am    
  11 C11            4.7664     4.3161    -0.0200 C.3     
  12 C12            4.7954     5.1946     1.2323 C.3     
  13 C13            6.0622     6.0525     1.2242 C.3     
  14 C14            6.0690     6.9403    -0.0218 C.3     
  15 C15            6.0400     6.0618    -1.2741 C.3     
  16 C16            4.7731     5.2039    -1.2660 C.3     
  17 O17            4.7429     1.5947    -0.0338 O.2     
  18 C18            1.1957    -2.2063    -0.0207 C.3     
  19 C19            1.0552    -2.7008    -1.4373 C.ar    
  20 C20           -0.1976    -2.9180    -1.9794 C.ar    
  21 C21            2.1824    -2.9369    -2.2119 C.ar    
  22 C22            2.0103    -3.3900    -3.5080 C.ar    
  23 C23            0.7182    -3.5927    -3.9885 C.ar    
  24 N24           -0.3337    -3.3503    -3.2169 N.ar    
  25 O25            4.7891     4.3654     2.3962 O.3     
  26 C26            0.5168    -4.0776    -5.3757 C.2     
  27 C27            1.5277    -4.4658    -6.2775 C.2     
  28 N28            0.9563    -4.8309    -7.3941 N.2     
  29 N29           -0.4295    -4.6917    -7.2516 N.pl3   
  30 C30           -0.6821    -4.2349    -6.0097 C.2     
  31 C31           -1.4327    -4.9958    -8.2750 C.3     
  32 C32           -1.3298     2.1117     0.0198 C.3     
  33 C33           -1.2981    -0.7660     0.0108 C.3     
  34 H34            3.3363    -0.5693    -0.0325 H       
  35 H35            2.2945     5.1737     0.0067 H       
  36 H36            5.6434     3.6689    -0.0302 H       
  37 H37            3.9184     5.8418     1.2426 H       
  38 H38            6.0829     6.6784     2.1164 H       
  39 H39            6.9392     5.4053     1.2140 H       
  40 H40            5.1920     7.5875    -0.0116 H       
  41 H41            6.9715     7.5515    -0.0276 H       
  42 H42            6.0448     6.6942    -2.1618 H       
  43 H43            6.9170     5.4146    -1.2843 H       
  44 H44            4.7525     4.5780    -2.1582 H       
  45 H45            3.8961     5.8511    -1.2558 H       
  46 H46            2.1291    -2.5771     0.4027 H       
  47 H47            0.3576    -2.5678     0.5751 H       
  48 H48           -1.0768    -2.7313    -1.3806 H       
  49 H49            3.1717    -2.7703    -1.8121 H       
  50 H50            2.8656    -3.5836    -4.1385 H       
  51 H51            4.8065     4.8564     3.2290 H       
  52 H52            2.5894    -4.4619    -6.0800 H       
  53 H53           -1.6564    -4.0286    -5.5919 H       
  54 H54           -1.7431    -6.0365    -8.1816 H       
  55 H55           -2.2971    -4.3455    -8.1410 H       
  56 H56           -1.0043    -4.8318    -9.2637 H       
  57 H57           -1.6415     2.2844     1.0500 H       
  58 H58           -1.2122     3.0683    -0.4894 H       
  59 H59           -2.0854     1.5172    -0.4936 H       
  60 H60           -1.6218    -0.9442    -1.0146 H       
  61 H61           -1.1566    -1.7203     0.5182 H       
  62 H62           -2.0564    -0.1846     0.5354 H       
@<TRIPOS>BOND
   1    1    2 ar
   2    1    6 ar
   3    1   32 1
   4    2    3 ar
   5    2   33 1
   6    3    4 ar
   7    3   18 1
   8    4    5 ar
   9    4   34 1
  10    5    9 1
  11    5    6 ar
  12    6    8 1
  13    7    8 2
  14    7   10 1
  15    7   35 1
  16    9   10 am
  17    9   17 2
  18   10   11 1
  19   11   12 1
  20   11   16 1
  21   11   36 1
  22   12   13 1
  23   12   25 1
  24   12   37 1
  25   13   14 1
  26   13   38 1
  27   13   39 1
  28   14   15 1
  29   14   40 1
  30   14   41 1
  31   15   16 1
  32   15   42 1
  33   15   43 1
  34   16   44 1
  35   16   45 1
  36   18   19 1
  37   18   46 1
  38   18   47 1
  39   19   21 ar
  40   19   20 ar
  41   20   24 ar
  42   20   48 1
  43   21   22 ar
  44   21   49 1
  45   22   23 ar
  46   22   50 1
  47   23   24 ar
  48   23   26 1
  49   25   51 1
  50   26   27 1
  51   26   30 2
  52   27   28 2
  53   27   52 1
  54   28   29 1
  55   29   30 1
  56   29   31 1
  57   30   53 1
  58   31   54 1
  59   31   55 1
  60   31   56 1
  61   32   57 1
  62   32   58 1
  63   32   59 1
  64   33   60 1
  65   33   61 1
  66   33   62 1

#	End of record

