#	Name: ASD03430918
#	Creating user name:	WinNT
#	Creation time:	15. 06. 2019 20:41

#	Modifying user name:	WinNT
#	Modification time:	15. 06. 2019 20:41

#	Program:	/corina/corina34_cracker 3.40 0067  02.08.2006

@<TRIPOS>MOLECULE
ASD03430918
  48   54    0    0    0
SMALL
NO_CHARGES


@<TRIPOS>ATOM
   1 O1            -0.0175     1.4359     0.0099 O.3     
   2 C2             0.0021    -0.0041     0.0020 C.3     
   3 C3             1.3461    -0.3165    -0.6696 C.3     
   4 C4             2.1585     0.9227    -0.4070 C.ar    
   5 C5             1.2617     1.9075     0.0003 C.ar    
   6 C6             1.7446     3.1696     0.3235 C.ar    
   7 C7             3.1024     3.4539     0.2332 C.ar    
   8 C8             3.9760     2.4543    -0.1768 C.ar    
   9 C9             3.5058     1.1994    -0.4972 C.ar    
  10 N10            2.1635    -2.4025    -1.1230 N.am    
  11 C11            1.9848    -1.5484    -0.0956 C.2     
  12 C12            1.1911    -0.5951    -2.1352 C.ar    
  13 C13            0.6799     0.1248    -3.1914 C.ar    
  14 C14            0.6791    -0.4179    -4.4644 C.ar    
  15 C15            1.1929    -1.6844    -4.6729 C.ar    
  16 C16            1.7058    -2.4103    -3.6176 C.ar    
  17 C17            1.7089    -1.8729    -2.3331 C.ar    
  18 O18            2.2821    -1.7377     1.0650 O.2     
  19 C19            5.3713     3.0470    -0.1610 C.3     
  20 C20            5.1634     4.3313     0.6761 C.3     
  21 O21            3.7680     4.6164     0.4802 O.3     
  22 C22            2.7646    -3.7315    -0.9865 C.3     
  23 C23            1.6855    -4.7440    -0.7011 C.ar    
  24 C24            1.0770    -5.3677    -1.7400 C.ar    
  25 C25            0.0678    -6.3156    -1.4820 C.ar    
  26 C26           -0.2973    -6.6011    -0.0719 C.ar    
  27 C27            0.3793    -5.9127     0.9538 C.ar    
  28 C28            1.3447    -5.0172     0.6297 C.ar    
  29 N29           -0.7324    -7.1060    -2.1540 N.2     
  30 O30           -1.4233    -7.7289    -1.3730 O.3     
  31 N31           -1.2399    -7.5028    -0.1937 N.2     
  32 H32           -0.0230    -0.3969     1.0185 H       
  33 H33           -0.8257    -0.3989    -0.5870 H       
  34 H34            1.0581     3.9376     0.6480 H       
  35 H35            4.1937     0.4317    -0.8192 H       
  36 H36            0.2788     1.1138    -3.0263 H       
  37 H37            0.2777     0.1465    -5.2931 H       
  38 H38            1.1931    -2.1074    -5.6666 H       
  39 H39            2.1055    -3.3989    -3.7883 H       
  40 H40            6.0752     2.3733     0.3275 H       
  41 H41            5.7030     3.2895    -1.1706 H       
  42 H42            5.3754     4.1446     1.7288 H       
  43 H43            5.7809     5.1448     0.2951 H       
  44 H44            3.2754    -3.9961    -1.9124 H       
  45 H45            3.4816    -3.7234    -0.1656 H       
  46 H46            1.3633    -5.1394    -2.7561 H       
  47 H47            0.1349    -6.0998     1.9890 H       
  48 H48            1.8598    -4.4926     1.4209 H       
@<TRIPOS>BOND
   1    1    2 1
   2    1    5 1
   3    2    3 1
   4    2   32 1
   5    2   33 1
   6    3    4 1
   7    3   11 1
   8    3   12 1
   9    4    5 ar
  10    4    9 ar
  11    5    6 ar
  12    6    7 ar
  13    6   34 1
  14    7    8 ar
  15    7   21 1
  16    8    9 ar
  17    8   19 1
  18    9   35 1
  19   10   11 am
  20   10   17 1
  21   10   22 1
  22   11   18 2
  23   12   13 ar
  24   12   17 ar
  25   13   14 ar
  26   13   36 1
  27   14   15 ar
  28   14   37 1
  29   15   16 ar
  30   15   38 1
  31   16   17 ar
  32   16   39 1
  33   19   20 1
  34   19   40 1
  35   19   41 1
  36   20   21 1
  37   20   42 1
  38   20   43 1
  39   22   23 1
  40   22   44 1
  41   22   45 1
  42   23   24 ar
  43   23   28 ar
  44   24   25 ar
  45   24   46 1
  46   25   26 ar
  47   25   29 2
  48   26   27 ar
  49   26   31 2
  50   27   28 ar
  51   27   47 1
  52   28   48 1
  53   29   30 1
  54   30   31 1

#	End of record

