#	Name: ASD04840036
#	Creating user name:	WinNT
#	Creation time:	15. 06. 2019 20:52

#	Modifying user name:	WinNT
#	Modification time:	15. 06. 2019 20:52

#	Program:	/corina/corina34_cracker 3.40 0067  02.08.2006

@<TRIPOS>MOLECULE
ASD04840036
  34   34    0    0    0
SMALL
NO_CHARGES


@<TRIPOS>ATOM
   1 C1            -0.0184     1.5028     0.0103 C.3     
   2 C2             0.0021    -0.0041     0.0020 C.ar    
   3 C3            -0.9625    -0.7122     0.6941 C.ar    
   4 C4            -0.9437    -2.0944     0.6866 C.ar    
   5 C5             0.0394    -2.7685    -0.0135 C.ar    
   6 C6             1.0034    -2.0603    -0.7063 C.ar    
   7 C7             0.9821    -0.6781    -0.7023 C.ar    
   8 N8             1.3598     2.0112    -0.0001 N.3     
   9 P9            -0.9001     2.1067    -1.4666 P.3     
  10 O10           -2.4448     1.6593    -1.3898 O.3     
  11 O11           -0.8089     3.7130    -1.5267 O.3     
  12 O12           -0.2797     1.5316    -2.6810 O.2     
  13 C13           -3.3758     1.8912    -2.4488 C.3     
  14 C14           -4.7479     1.3440    -2.0504 C.3     
  15 C15           -1.3130     4.4807    -2.6214 C.3     
  16 C16           -1.0650     5.9675    -2.3586 C.3     
  17 H17           -0.5286     1.8543     0.9071 H       
  18 H18           -1.7306    -0.1856     1.2411 H       
  19 H19           -1.6969    -2.6477     1.2279 H       
  20 H20            0.0544    -3.8483    -0.0188 H       
  21 H21            1.7717    -2.5870    -1.2530 H       
  22 H22            1.7331    -0.1249    -1.2467 H       
  23 H23            1.8502     1.7438     0.8401 H       
  24 H24            1.8542     1.6989    -0.8224 H       
  25 H25           -3.4524     2.9620    -2.6373 H       
  26 H26           -3.0318     1.3870    -3.3519 H       
  27 H27           -5.0919     1.8482    -1.1473 H       
  28 H28           -5.4581     1.5209    -2.8582 H       
  29 H29           -4.6714     0.2732    -1.8619 H       
  30 H30           -0.8038     4.1839    -3.5383 H       
  31 H31           -2.3834     4.3040    -2.7267 H       
  32 H32           -1.5742     6.2642    -1.4417 H       
  33 H33            0.0054     6.1442    -2.2533 H       
  34 H34           -1.4495     6.5531    -3.1937 H       
@<TRIPOS>BOND
   1    1    2 1
   2    1    8 1
   3    1    9 1
   4    1   17 1
   5    2    3 ar
   6    2    7 ar
   7    3    4 ar
   8    3   18 1
   9    4    5 ar
  10    4   19 1
  11    5    6 ar
  12    5   20 1
  13    6    7 ar
  14    6   21 1
  15    7   22 1
  16    8   23 1
  17    8   24 1
  18    9   10 1
  19    9   11 1
  20    9   12 2
  21   10   13 1
  22   11   15 1
  23   13   14 1
  24   13   25 1
  25   13   26 1
  26   14   27 1
  27   14   28 1
  28   14   29 1
  29   15   16 1
  30   15   30 1
  31   15   31 1
  32   16   32 1
  33   16   33 1
  34   16   34 1

#	End of record

