#	Name: ASD07300982
#	Creating user name:	WinNT
#	Creation time:	15. 06. 2019 21:10

#	Modifying user name:	WinNT
#	Modification time:	15. 06. 2019 21:10

#	Program:	/corina/corina34_cracker 3.40 0067  02.08.2006

@<TRIPOS>MOLECULE
ASD07300982
  27   27    0    0    0
SMALL
NO_CHARGES


@<TRIPOS>ATOM
   1 C1            -0.0092     1.5032     0.1334 C.3     
   2 C2             0.0094    -0.0036     0.1188 C.2     
   3 C3             1.2798    -0.7186    -0.0132 C.2     
   4 C4             1.2978    -2.1822    -0.0274 C.2     
   5 C5             1.2891    -2.9231    -1.3397 C.3     
   6 O6            -1.0289    -0.6242     0.2165 O.2     
   7 O7             1.3198    -2.7989     1.0175 O.2     
   8 N8             2.4122    -0.0418    -0.1198 N.2     
   9 N9             3.5396    -0.6686    -0.1319 N.pl3   
  10 C10            4.7360     0.0483    -0.1377 C.ar    
  11 C11            5.9516    -0.6256    -0.1508 C.ar    
  12 C12            7.1355     0.0887    -0.1564 C.ar    
  13 C13            7.1096     1.4740    -0.1490 C.ar    
  14 C14            5.9013     2.1457    -0.1359 C.ar    
  15 C15            4.7152     1.4381    -0.1360 C.ar    
  16 F16            8.3180    -0.5644    -0.1687 F       
  17 H17            1.0089     1.8801     0.0356 H       
  18 H18           -0.6127     1.8672    -0.6981 H       
  19 H19           -0.4371     1.8522     1.0732 H       
  20 H20            2.1182    -2.5780    -1.9574 H       
  21 H21            1.3947    -3.9920    -1.1541 H       
  22 H22            0.3481    -2.7354    -1.8567 H       
  23 H23            3.5552    -1.6384    -0.1371 H       
  24 H24            5.9713    -1.7054    -0.1562 H       
  25 H25            8.0353     2.0303    -0.1530 H       
  26 H26            5.8848     3.2256    -0.1301 H       
  27 H27            3.7721     1.9643    -0.1308 H       
@<TRIPOS>BOND
   1    1    2 1
   2    1   17 1
   3    1   18 1
   4    1   19 1
   5    2    3 1
   6    2    6 2
   7    3    4 1
   8    3    8 2
   9    4    5 1
  10    4    7 2
  11    5   20 1
  12    5   21 1
  13    5   22 1
  14    8    9 1
  15    9   10 1
  16    9   23 1
  17   10   11 ar
  18   10   15 ar
  19   11   12 ar
  20   11   24 1
  21   12   13 ar
  22   12   16 1
  23   13   14 ar
  24   13   25 1
  25   14   15 ar
  26   14   26 1
  27   15   27 1

#	End of record

