#	Name: ASD01810687
#	Creating user name:	WinNT
#	Creation time:	15. 06. 2019 19:25

#	Modifying user name:	WinNT
#	Modification time:	15. 06. 2019 19:25

#	Program:	/corina/corina34_cracker 3.40 0067  02.08.2006

@<TRIPOS>MOLECULE
ASD01810687
  31   31    0    0    0
SMALL
NO_CHARGES


@<TRIPOS>ATOM
   1 C1            -0.6271    -0.3183    -1.3511 C.2     
   2 C2             0.0535     0.0928    -0.0710 C.3     
   3 C3             1.4009    -0.6231     0.0429 C.3     
   4 C4             2.1534    -0.1015     1.2687 C.3     
   5 C5             3.5394    -0.6927     1.2963 C.2     
   6 O6            -0.0459    -1.0176    -2.1468 O.2     
   7 O7            -1.8811     0.0877    -1.6049 O.3     
   8 O8             3.9273    -1.3664     0.3714 O.2     
   9 O9             4.3428    -0.4709     2.3485 O.3     
  10 C10            1.1714    -2.1055     0.1875 C.ar    
  11 C11            1.6894    -2.9788    -0.7510 C.ar    
  12 C12            1.4805    -4.3381    -0.6207 C.ar    
  13 C13            0.7503    -4.8267     0.4529 C.ar    
  14 C14            0.2317    -3.9484     1.3933 C.ar    
  15 C15            0.4482    -2.5904     1.2615 C.ar    
  16 O16            0.5430    -6.1635     0.5831 O.3     
  17 C17           -0.2178    -6.5951     1.7131 C.3     
  18 H18            0.2141     1.1709    -0.0749 H       
  19 H19           -0.5747    -0.1779     0.7776 H       
  20 H20            1.9906    -0.4324    -0.8537 H       
  21 H21            2.2229     0.9850     1.2173 H       
  22 H22            1.6177    -0.3890     2.1734 H       
  23 H23           -2.2758    -0.2014    -2.4390 H       
  24 H24            5.2228    -0.8708     2.3209 H       
  25 H25            2.2574    -2.5979    -1.5868 H       
  26 H26            1.8849    -5.0198    -1.3543 H       
  27 H27           -0.3371    -4.3263     2.2299 H       
  28 H28            0.0487    -1.9066     1.9958 H       
  29 H29           -1.2108    -6.1471     1.6751 H       
  30 H30           -0.3084    -7.6812     1.6968 H       
  31 H31            0.2854    -6.2862     2.6293 H       
@<TRIPOS>BOND
   1    1    2 1
   2    1    6 2
   3    1    7 1
   4    2    3 1
   5    2   18 1
   6    2   19 1
   7    3    4 1
   8    3   10 1
   9    3   20 1
  10    4    5 1
  11    4   21 1
  12    4   22 1
  13    5    8 2
  14    5    9 1
  15    7   23 1
  16    9   24 1
  17   10   11 ar
  18   10   15 ar
  19   11   12 ar
  20   11   25 1
  21   12   13 ar
  22   12   26 1
  23   13   14 ar
  24   13   16 1
  25   14   15 ar
  26   14   27 1
  27   15   28 1
  28   16   17 1
  29   17   29 1
  30   17   30 1
  31   17   31 1

#	End of record

