#	Name: ASD01900734
#	Creating user name:	WinNT
#	Creation time:	15. 06. 2019 19:52

#	Modifying user name:	WinNT
#	Modification time:	15. 06. 2019 19:52

#	Program:	/corina/corina34_cracker 3.40 0067  02.08.2006

@<TRIPOS>MOLECULE
ASD01900734
  55   59    0    0    0
SMALL
NO_CHARGES


@<TRIPOS>ATOM
   1 C1            -0.0159     1.4185    -0.1155 C.ar    
   2 C2             0.0119     0.0199    -0.1194 C.ar    
   3 C3            -1.1579    -0.7028    -0.0678 C.ar    
   4 C4            -2.3838    -0.0473    -0.0104 C.ar    
   5 C5            -2.4141     1.3561    -0.0106 C.ar    
   6 O6            -3.5326    -0.7519     0.0525 O.3     
   7 C7            -4.7265    -0.1826    -0.1892 C.2     
   8 C8            -4.9090     1.1620    -0.2053 C.2     
   9 C9            -3.7398     2.0256     0.0370 C.2     
  10 C10           -5.8841    -1.0545    -0.4475 C.2     
  11 N11           -7.1014    -0.5111    -0.6945 N.2     
  12 C12           -8.1477    -1.2442    -0.9275 C.2     
  13 N13           -8.0760    -2.6101    -0.9359 N.pl3   
  14 C14           -6.8625    -3.2287    -0.6911 C.2     
  15 C15           -5.7299    -2.4308    -0.4442 C.2     
  16 C16           -1.2394     2.0880    -0.0548 C.ar    
  17 C17           -9.0102    -3.5777    -1.1494 C.2     
  18 C18           -8.4193    -4.7931    -1.0459 C.2     
  19 C19           -7.0659    -4.5944    -0.7574 C.2     
  20 C20            1.2453     2.1844    -0.1692 C.2     
  21 N21            2.4257     1.5361    -0.2221 N.am    
  22 C22            3.6771     2.2959    -0.2754 C.3     
  23 C23            4.8601     1.3272    -0.3291 C.3     
  24 N24            6.1149     2.0891    -0.3825 N.3     
  25 O25            1.2191     3.3999    -0.1657 O.2     
  26 C26            7.2757     1.2064    -0.1965 C.3     
  27 C27            8.5608     2.0295    -0.3186 C.3     
  28 O28            8.5317     3.0940     0.6360 O.3     
  29 C29            7.4144     3.9736     0.4835 C.3     
  30 C30            6.1177     3.1702     0.6138 C.3     
  31 N31           -3.8620     3.3085     0.2806 N.2     
  32 O32           -2.7276     4.0696     0.6533 O.3     
  33 H33            0.9592    -0.4968    -0.1637 H       
  34 H34           -1.1244    -1.7823    -0.0723 H       
  35 H35           -5.8842     1.5875    -0.3907 H       
  36 H36           -9.0962    -0.7643    -1.1186 H       
  37 H37           -4.7673    -2.8801    -0.2494 H       
  38 H38           -1.2698     3.1675    -0.0508 H       
  39 H39          -10.0541    -3.4045    -1.3657 H       
  40 H40           -8.9085    -5.7485    -1.1657 H       
  41 H41           -6.3203    -5.3624    -0.6140 H       
  42 H42            2.4467     0.5663    -0.2249 H       
  43 H43            3.6823     2.9254    -1.1653 H       
  44 H44            3.7601     2.9220     0.6130 H       
  45 H45            4.8549     0.6977     0.5608 H       
  46 H46            4.7771     0.7012    -1.2175 H       
  47 H47            7.2296     0.7478     0.7913 H       
  48 H48            7.2676     0.4287    -0.9602 H       
  49 H49            9.4222     1.3903    -0.1248 H       
  50 H50            8.6333     2.4441    -1.3240 H       
  51 H51            7.4467     4.7406     1.2574 H       
  52 H52            7.4535     4.4448    -0.4986 H       
  53 H53            5.2643     3.8261     0.4415 H       
  54 H54            6.0531     2.7431     1.6145 H       
  55 H55           -2.9161     5.0046     0.8121 H       
@<TRIPOS>BOND
   1    1    2 ar
   2    1   20 1
   3    1   16 ar
   4    2    3 ar
   5    2   33 1
   6    3    4 ar
   7    3   34 1
   8    4    5 ar
   9    4    6 1
  10    5   16 ar
  11    5    9 1
  12    6    7 1
  13    7    8 2
  14    7   10 1
  15    8    9 1
  16    8   35 1
  17    9   31 2
  18   10   11 1
  19   10   15 2
  20   11   12 2
  21   12   13 1
  22   12   36 1
  23   13   14 1
  24   13   17 1
  25   14   15 1
  26   14   19 2
  27   15   37 1
  28   16   38 1
  29   17   18 2
  30   17   39 1
  31   18   19 1
  32   18   40 1
  33   19   41 1
  34   20   21 am
  35   20   25 2
  36   21   22 1
  37   21   42 1
  38   22   23 1
  39   22   43 1
  40   22   44 1
  41   23   24 1
  42   23   45 1
  43   23   46 1
  44   24   26 1
  45   24   30 1
  46   26   27 1
  47   26   47 1
  48   26   48 1
  49   27   28 1
  50   27   49 1
  51   27   50 1
  52   28   29 1
  53   29   30 1
  54   29   51 1
  55   29   52 1
  56   30   53 1
  57   30   54 1
  58   31   32 1
  59   32   55 1

#	End of record

