#	Name: ASD02500202
#	Creating user name:	WinNT
#	Creation time:	15. 06. 2019 20:22

#	Modifying user name:	WinNT
#	Modification time:	15. 06. 2019 20:22

#	Program:	/corina/corina34_cracker 3.40 0067  02.08.2006

@<TRIPOS>MOLECULE
ASD02500202
  66   70    0    0    0
SMALL
NO_CHARGES


@<TRIPOS>ATOM
   1 N1            -3.5530     5.5863    -0.0653 N.ar    
   2 C2            -4.6722     6.2271    -0.3003 C.ar    
   3 C3            -5.8092     6.0273     0.4799 C.ar    
   4 C4            -5.7751     5.1438     1.5209 C.ar    
   5 C5            -4.5716     4.4571     1.7700 C.ar    
   6 C6            -4.4606     3.5344     2.8222 C.ar    
   7 C7            -3.2789     2.8907     3.0309 C.ar    
   8 C8            -2.1774     3.1359     2.2140 C.ar    
   9 C9            -2.2498     4.0239     1.1850 C.ar    
  10 C10           -3.4524     4.7082     0.9377 C.ar    
  11 S11           -0.8411     4.3154     0.1676 S.o2    
  12 O12           -0.6781     5.7255     0.1025 O.2     
  13 O13            0.1755     3.4360     0.6284 O.2     
  14 N14           -1.2308     3.8185    -1.3632 N.am    
  15 C15           -1.4387     2.4687    -1.6242 C.ar    
  16 C16           -1.0791     1.9365    -2.8596 C.ar    
  17 C17           -1.2835     0.6012    -3.1209 C.ar    
  18 C18           -1.8531    -0.2215    -2.1444 C.ar    
  19 C19           -2.2130     0.3158    -0.9052 C.ar    
  20 C20           -2.0007     1.6510    -0.6479 C.ar    
  21 C21           -2.0741    -1.6535    -2.4215 C.2     
  22 O22           -2.5057    -2.0039    -3.5029 O.2     
  23 N23           -1.7977    -2.5733    -1.4760 N.am    
  24 C24           -1.9252    -4.0080    -1.7682 C.3     
  25 C25           -0.5897    -4.6929    -1.4530 C.3     
  26 N26           -0.1549    -4.2792    -0.1115 N.am    
  27 C27           -0.0273    -2.8446     0.1807 C.3     
  28 C28           -1.3575    -2.1598    -0.1362 C.3     
  29 C29            0.1215    -5.1991     0.8340 C.2     
  30 O30            0.0123    -6.3802     0.5813 O.2     
  31 C31            0.5664    -4.7599     2.2053 C.3     
  32 C32            0.8090    -5.9723     3.0669 C.ar    
  33 C33            2.0613    -6.5566     3.1010 C.ar    
  34 C34            2.2839    -7.6687     3.8913 C.ar    
  35 C35            1.2542    -8.1962     4.6479 C.ar    
  36 C36            0.0021    -7.6113     4.6145 C.ar    
  37 C37           -0.2193    -6.4966     3.8275 C.ar    
  38 C38           -0.4657     2.8241    -3.9118 C.3     
  39 H39           -4.7139     6.9288    -1.1202 H       
  40 H40           -6.7166     6.5708     0.2618 H       
  41 H41           -6.6469     4.9770     2.1360 H       
  42 H42           -5.3074     3.3366     3.4627 H       
  43 H43           -3.1945     2.1810     3.8406 H       
  44 H44           -1.2509     2.6131     2.4004 H       
  45 H45           -1.3140     4.4691    -2.0779 H       
  46 H46           -1.0047     0.1891    -4.0795 H       
  47 H47           -2.6532    -0.3172    -0.1489 H       
  48 H48           -2.2742     2.0657     0.3110 H       
  49 H49           -2.7123    -4.4388    -1.1494 H       
  50 H50           -2.1678    -4.1465    -2.8218 H       
  51 H51           -0.7186    -5.7750    -1.4783 H       
  52 H52            0.1574    -4.3937    -2.1882 H       
  53 H53            0.2152    -2.7060     1.2343 H       
  54 H54            0.7598    -2.4138    -0.4381 H       
  55 H55           -1.2252    -1.0781    -0.1123 H       
  56 H56           -2.1033    -2.4560     0.6015 H       
  57 H57            1.4878    -4.1837     2.1211 H       
  58 H58           -0.2087    -4.1416     2.6580 H       
  59 H59            2.8658    -6.1445     2.5098 H       
  60 H60            3.2621    -8.1257     3.9173 H       
  61 H61            1.4279    -9.0655     5.2648 H       
  62 H62           -0.8024    -8.0237     5.2053 H       
  63 H63           -1.1965    -6.0375     3.8043 H       
  64 H64            0.6186     2.8236    -3.8005 H       
  65 H65           -0.7295     2.4504    -4.9012 H       
  66 H66           -0.8425     3.8401    -3.7947 H       
@<TRIPOS>BOND
   1    1    2 ar
   2    1   10 ar
   3    2    3 ar
   4    2   39 1
   5    3    4 ar
   6    3   40 1
   7    4    5 ar
   8    4   41 1
   9    5    6 ar
  10    5   10 ar
  11    6    7 ar
  12    6   42 1
  13    7    8 ar
  14    7   43 1
  15    8    9 ar
  16    8   44 1
  17    9   10 ar
  18    9   11 1
  19   11   12 2
  20   11   13 2
  21   11   14 am
  22   14   15 1
  23   14   45 1
  24   15   16 ar
  25   15   20 ar
  26   16   17 ar
  27   16   38 1
  28   17   18 ar
  29   17   46 1
  30   18   19 ar
  31   18   21 1
  32   19   20 ar
  33   19   47 1
  34   20   48 1
  35   21   22 2
  36   21   23 am
  37   23   24 1
  38   23   28 1
  39   24   25 1
  40   24   49 1
  41   24   50 1
  42   25   26 1
  43   25   51 1
  44   25   52 1
  45   26   27 1
  46   26   29 am
  47   27   28 1
  48   27   53 1
  49   27   54 1
  50   28   55 1
  51   28   56 1
  52   29   30 2
  53   29   31 1
  54   31   32 1
  55   31   57 1
  56   31   58 1
  57   32   33 ar
  58   32   37 ar
  59   33   34 ar
  60   33   59 1
  61   34   35 ar
  62   34   60 1
  63   35   36 ar
  64   35   61 1
  65   36   37 ar
  66   36   62 1
  67   37   63 1
  68   38   64 1
  69   38   65 1
  70   38   66 1

#	End of record

