#	Name: ASD01912769
#	Creating user name:	WinNT
#	Creation time:	15. 06. 2019 20:00

#	Modifying user name:	WinNT
#	Modification time:	15. 06. 2019 20:00

#	Program:	/corina/corina34_cracker 3.40 0067  02.08.2006

@<TRIPOS>MOLECULE
ASD01912769
  37   40    0    0    0
SMALL
NO_CHARGES


@<TRIPOS>ATOM
   1 C1            -0.0165     1.3669     0.0096 C.2     
   2 N2             0.0021    -0.0041     0.0020 N.pl3   
   3 C3            -1.2023    -0.6921     0.0098 C.2     
   4 C4            -2.3629    -0.0499     0.0243 C.2     
   5 N5            -2.4359     1.3308     0.0320 N.am    
   6 C6            -1.3019     2.0668     0.0309 C.2     
   7 C7             1.3015     1.7836    -0.0008 C.2     
   8 C8             2.0550     0.6110    -0.0143 C.2     
   9 N9             1.2244    -0.4045    -0.0118 N.2     
  10 O10           -1.3488     3.2837     0.0380 O.2     
  11 C11           -3.6794     1.9643     0.0464 C.ar    
  12 C12            3.5595     0.5249    -0.0301 C.3     
  13 O13            4.1120     1.8428    -0.0292 O.3     
  14 C14            5.4656     1.9434    -0.0425 C.ar    
  15 C15            6.0891     3.1887    -0.0428 C.ar    
  16 C16            7.4674     3.2489    -0.0561 C.ar    
  17 N17            8.1922     2.1462    -0.0685 N.ar    
  18 C18            7.6384     0.9484    -0.0687 C.ar    
  19 C19            6.2663     0.8040    -0.0505 C.ar    
  20 N20           -3.7443     3.2826    -0.0520 N.ar    
  21 C21           -4.8374     1.2040     0.1582 C.ar    
  22 C22           -6.0648     1.8436     0.1709 C.ar    
  23 C23           -6.0907     3.2295     0.0707 C.ar    
  24 C24           -4.8981     3.9216    -0.0431 C.ar    
  25 F25           -7.2675     3.8930     0.0787 F       
  26 H26           -1.1950    -1.7720     0.0036 H       
  27 H27           -3.2784    -0.6227     0.0300 H       
  28 H28            1.6684     2.7994     0.0008 H       
  29 H29            3.9019    -0.0132     0.8538 H       
  30 H30            3.8837    -0.0044    -0.9260 H       
  31 H31            5.5017     4.0950    -0.0330 H       
  32 H32            7.9593     4.2104    -0.0567 H       
  33 H33            8.2669     0.0703    -0.0794 H       
  34 H34            5.8194    -0.1792    -0.0504 H       
  35 H35           -4.7804     0.1282     0.2338 H       
  36 H36           -6.9813     1.2787     0.2563 H       
  37 H37           -4.9118     4.9987    -0.1213 H       
@<TRIPOS>BOND
   1    1    2 1
   2    1    7 2
   3    1    6 1
   4    2    3 1
   5    2    9 1
   6    3    4 2
   7    3   26 1
   8    4    5 1
   9    4   27 1
  10    5    6 am
  11    5   11 1
  12    6   10 2
  13    7    8 1
  14    7   28 1
  15    8    9 2
  16    8   12 1
  17   11   21 ar
  18   11   20 ar
  19   12   13 1
  20   12   29 1
  21   12   30 1
  22   13   14 1
  23   14   15 ar
  24   14   19 ar
  25   15   16 ar
  26   15   31 1
  27   16   17 ar
  28   16   32 1
  29   17   18 ar
  30   18   19 ar
  31   18   33 1
  32   19   34 1
  33   20   24 ar
  34   21   22 ar
  35   21   35 1
  36   22   23 ar
  37   22   36 1
  38   23   24 ar
  39   23   25 1
  40   24   37 1

#	End of record

