#	Name: ASD00071118
#	Creating user name:	WinNT
#	Creation time:	15. 06. 2019 18:30

#	Modifying user name:	WinNT
#	Modification time:	15. 06. 2019 18:30

#	Program:	/corina/corina34_cracker 3.40 0067  02.08.2006

@<TRIPOS>MOLECULE
ASD00071118
  65   69    0    0    0
SMALL
NO_CHARGES


@<TRIPOS>ATOM
   1 N1            -0.0157     1.3065     0.0092 N.2     
   2 C2             0.0021    -0.0041     0.0020 C.2     
   3 N3             1.1984    -0.6822     0.0317 N.pl3   
   4 C4             2.3732    -0.0684    -0.6058 C.3     
   5 C5             2.3601     1.4066    -0.2838 C.ar    
   6 C6             3.5306     2.1320    -0.2741 C.ar    
   7 C7             3.5023     3.4864     0.0113 C.ar    
   8 C8             2.3010     4.1157     0.2867 C.ar    
   9 C9             1.1230     3.3980     0.2846 C.ar    
  10 C10            1.1441     2.0306     0.0020 C.ar    
  11 N11           -1.1783    -0.7029    -0.0348 N.pl3   
  12 C12            1.3004    -1.9893     0.6854 C.3     
  13 C13            1.0037    -3.0761    -0.3155 C.ar    
  14 C14            1.9845    -3.4848    -1.2078 C.ar    
  15 C15            1.7083    -4.4854    -2.1279 C.ar    
  16 C16            0.4578    -5.0725    -2.1538 C.ar    
  17 C17           -0.5178    -4.6632    -1.2640 C.ar    
  18 C18           -0.2430    -3.6701    -0.3416 C.ar    
  19 O19            3.2135    -2.9055    -1.1807 O.3     
  20 C20            4.1738    -3.3764    -2.1285 C.3     
  21 N21           -5.2336     0.1705     0.7031 N.3     
  22 C22           -4.8683    -0.1368    -0.6856 C.3     
  23 C23           -3.5246    -0.8690    -0.7110 C.3     
  24 C24           -2.4545     0.0160    -0.0660 C.3     
  25 C25           -2.8823     0.3613     1.3631 C.3     
  26 C26           -4.2445     1.0578     1.3283 C.3     
  27 C27           -6.5815     0.7496     0.7770 C.3     
  28 C28           -7.0182     0.8235     2.2175 C.ar    
  29 C29           -6.7431     1.9526     2.9661 C.ar    
  30 C30           -7.1436     2.0204     4.2874 C.ar    
  31 C31           -7.8195     0.9593     4.8600 C.ar    
  32 C32           -8.0954    -0.1695     4.1112 C.ar    
  33 C33           -7.6988    -0.2355     2.7886 C.ar    
  34 H34            3.2838    -0.5228    -0.2154 H       
  35 H35            2.3231    -0.2105    -1.6853 H       
  36 H36            4.4702     1.6446    -0.4885 H       
  37 H37            4.4211     4.0539     0.0193 H       
  38 H38            2.2857     5.1734     0.5045 H       
  39 H39            0.1873     3.8920     0.5009 H       
  40 H40           -1.1678    -1.6728    -0.0402 H       
  41 H41            2.3088    -2.1217     1.0774 H       
  42 H42            0.5825    -2.0432     1.5038 H       
  43 H43            2.4699    -4.8051    -2.8238 H       
  44 H44            0.2422    -5.8516    -2.8700 H       
  45 H45           -1.4949    -5.1228    -1.2863 H       
  46 H46           -1.0053    -3.3554     0.3556 H       
  47 H47            4.3481    -4.4407    -1.9709 H       
  48 H48            3.7964    -3.2156    -3.1384 H       
  49 H49            5.1091    -2.8319    -1.9991 H       
  50 H50           -5.6354    -0.7701    -1.1313 H       
  51 H51           -4.7876     0.7900    -1.2536 H       
  52 H52           -3.6084    -1.8027    -0.1549 H       
  53 H53           -3.2463    -1.0831    -1.7429 H       
  54 H54           -2.3422     0.9326    -0.6451 H       
  55 H55           -2.9559    -0.5530     1.9519 H       
  56 H56           -2.1450     1.0262     1.8131 H       
  57 H57           -4.1668     1.9790     0.7510 H       
  58 H58           -4.5586     1.2922     2.3455 H       
  59 H59           -6.5704     1.7520     0.3489 H       
  60 H60           -7.2771     0.1236     0.2182 H       
  61 H61           -6.2150     2.7817     2.5187 H       
  62 H62           -6.9280     2.9023     4.8724 H       
  63 H63           -8.1318     1.0119     5.8926 H       
  64 H64           -8.6233    -0.9987     4.5587 H       
  65 H65           -7.9176    -1.1158     2.2025 H       
@<TRIPOS>BOND
   1    1    2 2
   2    1   10 1
   3    2    3 1
   4    2   11 1
   5    3    4 1
   6    3   12 1
   7    4    5 1
   8    4   34 1
   9    4   35 1
  10    5    6 ar
  11    5   10 ar
  12    6    7 ar
  13    6   36 1
  14    7    8 ar
  15    7   37 1
  16    8    9 ar
  17    8   38 1
  18    9   10 ar
  19    9   39 1
  20   11   24 1
  21   11   40 1
  22   12   13 1
  23   12   41 1
  24   12   42 1
  25   13   14 ar
  26   13   18 ar
  27   14   15 ar
  28   14   19 1
  29   15   16 ar
  30   15   43 1
  31   16   17 ar
  32   16   44 1
  33   17   18 ar
  34   17   45 1
  35   18   46 1
  36   19   20 1
  37   20   47 1
  38   20   48 1
  39   20   49 1
  40   21   22 1
  41   21   26 1
  42   21   27 1
  43   22   23 1
  44   22   50 1
  45   22   51 1
  46   23   24 1
  47   23   52 1
  48   23   53 1
  49   24   25 1
  50   24   54 1
  51   25   26 1
  52   25   55 1
  53   25   56 1
  54   26   57 1
  55   26   58 1
  56   27   28 1
  57   27   59 1
  58   27   60 1
  59   28   29 ar
  60   28   33 ar
  61   29   30 ar
  62   29   61 1
  63   30   31 ar
  64   30   62 1
  65   31   32 ar
  66   31   63 1
  67   32   33 ar
  68   32   64 1
  69   33   65 1

#	End of record

