#	Name: ASD01478076
#	Creating user name:	WinNT
#	Creation time:	15. 06. 2019 19:21

#	Modifying user name:	WinNT
#	Modification time:	15. 06. 2019 19:21

#	Program:	/corina/corina34_cracker 3.40 0067  02.08.2006

@<TRIPOS>MOLECULE
ASD01478076
  33   34    0    0    0
SMALL
NO_CHARGES


@<TRIPOS>ATOM
   1 C1            -0.0477     1.1723    -0.1261 C.3     
   2 C2             0.1483    -0.2200    -0.5443 C.3     
   3 O3             0.8382    -0.9884     0.4621 O.3     
   4 C4             2.2228    -0.7897     0.4427 C.3     
   5 O5             2.6599     0.2135     1.3853 O.3     
   6 C6             1.8143     1.3828     1.4909 C.3     
   7 C7             1.2995     1.8659     0.1643 C.3     
   8 O8            -0.7358     1.8934    -1.1820 O.3     
   9 C9            -2.0806     1.9020    -1.1397 C.2     
  10 O10           -2.6637     1.3232    -0.2455 O.2     
  11 O11           -2.7794     2.5521    -2.0884 O.3     
  12 C12           -4.1278     2.6143    -1.9279 C.ar    
  13 C13           -4.6782     3.4954    -1.0087 C.ar    
  14 C14           -6.0489     3.5571    -0.8478 C.ar    
  15 C15           -6.8720     2.7412    -1.6018 C.ar    
  16 C16           -6.3258     1.8621    -2.5186 C.ar    
  17 C17           -4.9561     1.8008    -2.6873 C.ar    
  18 N18           -8.3403     2.8085    -1.4267 N.pl3   
  19 O19           -8.8224     3.5823    -0.6190 O.2     
  20 O20           -9.0663     2.0902    -2.0903 O.2     
  21 H21           -0.6604     1.1912     0.7753 H       
  22 H22           -0.8242    -0.6744    -0.7336 H       
  23 H23            0.7315    -0.2357    -1.4650 H       
  24 H24            2.7162    -1.7324     0.6790 H       
  25 H25            2.5194    -0.4823    -0.5601 H       
  26 H26            0.9642     1.1431     2.1297 H       
  27 H27            2.3844     2.1857     1.9583 H       
  28 H28            2.0156     1.6161    -0.6187 H       
  29 H29            1.1547     2.9457     0.1995 H       
  30 H30           -4.0356     4.1325    -0.4190 H       
  31 H31           -6.4778     4.2429    -0.1322 H       
  32 H32           -6.9708     1.2255    -3.1062 H       
  33 H33           -4.5302     1.1169    -3.4065 H       
@<TRIPOS>BOND
   1    1    2 1
   2    1    7 1
   3    1    8 1
   4    1   21 1
   5    2    3 1
   6    2   22 1
   7    2   23 1
   8    3    4 1
   9    4    5 1
  10    4   24 1
  11    4   25 1
  12    5    6 1
  13    6    7 1
  14    6   26 1
  15    6   27 1
  16    7   28 1
  17    7   29 1
  18    8    9 1
  19    9   10 2
  20    9   11 1
  21   11   12 1
  22   12   13 ar
  23   12   17 ar
  24   13   14 ar
  25   13   30 1
  26   14   15 ar
  27   14   31 1
  28   15   16 ar
  29   15   18 1
  30   16   17 ar
  31   16   32 1
  32   17   33 1
  33   18   19 2
  34   18   20 2

#	End of record

