#	Name: ASD08150487
#	Creating user name:	WinNT
#	Creation time:	15. 06. 2019 21:16

#	Modifying user name:	WinNT
#	Modification time:	15. 06. 2019 21:16

#	Program:	/corina/corina34_cracker 3.40 0067  02.08.2006

@<TRIPOS>MOLECULE
ASD08150487
  34   37    0    0    0
SMALL
NO_CHARGES


@<TRIPOS>ATOM
   1 N1            -0.0162     1.3412     0.0094 N.am    
   2 C2             0.0566     0.0883     0.4942 C.2     
   3 C3             1.2672    -0.6324     0.5014 C.2     
   4 C4             2.4019    -0.0684     0.0118 C.2     
   5 C5             2.3305     1.2915    -0.5167 C.ar    
   6 C6             3.4574     1.9413    -1.0385 C.ar    
   7 N7             3.3722     3.1639    -1.5082 N.ar    
   8 C8             2.2284     3.8474    -1.5164 C.ar    
   9 C9             1.0506     3.2699    -1.0118 C.ar    
  10 C10            1.0940     1.9655    -0.4990 C.ar    
  11 C11           -0.0001     4.2750    -1.1699 C.2     
  12 C12            0.5730     5.3510    -1.7334 C.2     
  13 N13            1.9032     5.1097    -1.9458 N.pl3   
  14 O14           -0.9502    -0.4364     0.9388 O.2     
  15 C15           -1.2439     2.0151     0.0189 C.ar    
  16 C16           -2.1029     1.9103    -1.0670 C.ar    
  17 C17           -3.3134     2.5753    -1.0554 C.ar    
  18 C18           -3.6705     3.3462     0.0380 C.ar    
  19 C19           -2.8151     3.4520     1.1222 C.ar    
  20 C20           -1.6064     2.7846     1.1169 C.ar    
  21 F21           -4.8548     3.9962     0.0471 F       
  22 C22           -4.2459     2.4623    -2.2339 C.3     
  23 F23           -3.6707     1.6371    -3.2062 F       
  24 F24           -5.4620     1.9119    -1.8152 F       
  25 F25           -4.4706     3.7330    -2.7743 F       
  26 H26            1.2933    -1.6366     0.8979 H       
  27 H27            3.3348    -0.6125     0.0136 H       
  28 H28            4.4083     1.4295    -1.0538 H       
  29 H29           -1.0376     4.1716    -0.8881 H       
  30 H30            0.0609     6.2689    -1.9816 H       
  31 H31            2.5257     5.7395    -2.3418 H       
  32 H32           -1.8245     1.3094    -1.9201 H       
  33 H33           -3.0954     4.0541     1.9739 H       
  34 H34           -0.9396     2.8674     1.9624 H       
@<TRIPOS>BOND
   1    1    2 am
   2    1   10 1
   3    1   15 1
   4    2    3 1
   5    2   14 2
   6    3    4 2
   7    3   26 1
   8    4    5 1
   9    4   27 1
  10    5    6 ar
  11    5   10 ar
  12    6    7 ar
  13    6   28 1
  14    7    8 ar
  15    8    9 ar
  16    8   13 1
  17    9   10 ar
  18    9   11 1
  19   11   12 2
  20   11   29 1
  21   12   13 1
  22   12   30 1
  23   13   31 1
  24   15   16 ar
  25   15   20 ar
  26   16   17 ar
  27   16   32 1
  28   17   18 ar
  29   17   22 1
  30   18   19 ar
  31   18   21 1
  32   19   20 ar
  33   19   33 1
  34   20   34 1
  35   22   23 1
  36   22   24 1
  37   22   25 1

#	End of record

