#	Name: ASD08070014
#	Creating user name:	WinNT
#	Creation time:	15. 06. 2019 21:14

#	Modifying user name:	WinNT
#	Modification time:	15. 06. 2019 21:14

#	Program:	/corina/corina34_cracker 3.40 0067  02.08.2006

@<TRIPOS>MOLECULE
ASD08070014
  35   36    0    0    0
SMALL
NO_CHARGES


@<TRIPOS>ATOM
   1 C1            -0.0168     1.3847     0.0097 C.ar    
   2 C2             0.0021    -0.0041     0.0020 C.ar    
   3 C3            -1.1730    -0.7244     0.0089 C.ar    
   4 C4            -2.3929    -0.0586     0.0241 C.ar    
   5 C5            -2.4067     1.3488     0.0323 C.ar    
   6 C6            -1.2052     2.0610     0.0303 C.ar    
   7 O7            -3.6732    -0.4784     0.0337 O.3     
   8 C8            -4.5226     0.5701     0.0477 C.2     
   9 C9            -3.8182     1.7312     0.0477 C.2     
  10 C10           -5.9890     0.4704     0.0604 C.2     
  11 N11           -6.5822    -0.7397     0.0591 N.am    
  12 O12           -6.6672     1.4803     0.0721 O.2     
  13 Cl13           1.4779     2.2676     0.0001 Cl      
  14 C14           -8.5741    -0.7403    -1.3599 C.3     
  15 C15           -8.0438    -0.8391     0.0718 C.3     
  16 C16           -8.4585    -2.1813     0.6778 C.3     
  17 O17           -8.0148    -3.2436    -0.1687 O.3     
  18 C18           -8.3529    -4.5473     0.3088 C.3     
  19 C19           -8.2677     0.6491    -1.9226 C.3     
  20 H20            0.9479    -0.5253    -0.0098 H       
  21 H21           -1.1458    -1.8040     0.0021 H       
  22 H22           -1.2147     3.1409     0.0366 H       
  23 H23           -4.2193     2.7339     0.0575 H       
  24 H24           -6.0414    -1.5450     0.0498 H       
  25 H25           -8.0924    -1.4972    -1.9789 H       
  26 H26           -9.6519    -0.9028    -1.3602 H       
  27 H27           -8.4579    -0.0271     0.6695 H       
  28 H28           -8.0069    -2.2898     1.6639 H       
  29 H29           -9.5440    -2.2188     0.7692 H       
  30 H30           -7.9813    -5.2976    -0.3891 H       
  31 H31           -7.8992    -4.7048     1.2873 H       
  32 H32           -9.4363    -4.6339     0.3925 H       
  33 H33           -7.1899     0.8116    -1.9223 H       
  34 H34           -8.6455     0.7195    -2.9426 H       
  35 H35           -8.7494     1.4061    -1.3037 H       
@<TRIPOS>BOND
   1    1    2 ar
   2    1   13 1
   3    1    6 ar
   4    2    3 ar
   5    2   20 1
   6    3    4 ar
   7    3   21 1
   8    4    5 ar
   9    4    7 1
  10    5    6 ar
  11    5    9 1
  12    6   22 1
  13    7    8 1
  14    8    9 2
  15    8   10 1
  16    9   23 1
  17   10   11 am
  18   10   12 2
  19   11   15 1
  20   11   24 1
  21   14   15 1
  22   14   19 1
  23   14   25 1
  24   14   26 1
  25   15   16 1
  26   15   27 1
  27   16   17 1
  28   16   28 1
  29   16   29 1
  30   17   18 1
  31   18   30 1
  32   18   31 1
  33   18   32 1
  34   19   33 1
  35   19   34 1
  36   19   35 1

#	End of record

