#	Name: ASD07300174
#	Creating user name:	WinNT
#	Creation time:	15. 06. 2019 21:09

#	Modifying user name:	WinNT
#	Modification time:	15. 06. 2019 21:09

#	Program:	/corina/corina34_cracker 3.40 0067  02.08.2006

@<TRIPOS>MOLECULE
ASD07300174
  41   45    0    0    0
SMALL
NO_CHARGES


@<TRIPOS>ATOM
   1 C1            -0.0169     1.3941     0.0097 C.ar    
   2 C2             0.0021    -0.0041     0.0020 C.ar    
   3 C3             1.2199    -0.6674    -0.0128 C.ar    
   4 C4             2.3808     0.0923    -0.0194 C.ar    
   5 C5             2.2878     1.4713    -0.0111 C.ar    
   6 N6             1.1161     2.0768     0.0026 N.ar    
   7 C7            -2.1139     0.6622     0.0347 C.2     
   8 N8            -1.3542     1.7734     0.0301 N.am    
   9 N9            -1.3235    -0.4279     0.0124 N.am    
  10 O10           -3.3304     0.6453     0.0513 O.2     
  11 N11           -3.4923     6.8832     0.0906 N.pl3   
  12 C12           -4.8293     6.5811     0.1066 C.2     
  13 C13           -4.9974     5.2495     0.1005 C.2     
  14 C14           -3.6614     4.6470     0.0788 C.ar    
  15 C15           -3.1928     3.3320     0.0640 C.ar    
  16 C16           -1.8318     3.0926     0.0441 C.ar    
  17 C17           -0.9320     4.1569     0.0383 C.ar    
  18 C18           -1.3844     5.4571     0.0528 C.ar    
  19 C19           -2.7501     5.7182     0.0734 C.ar    
  20 S20           -3.8853     9.6091     0.1010 S.3     
  21 C21           -2.9625     8.1700     0.0864 C.2     
  22 N22           -1.6974     8.4519     0.0716 N.2     
  23 C23           -1.3700     9.7303     0.0705 C.2     
  24 C24           -2.4081    10.5689     0.0851 C.2     
  25 C25           -1.7801    -1.8199     0.0085 C.3     
  26 C26           -1.9250    -2.3131     1.4496 C.3     
  27 H27            1.2635    -1.7465    -0.0186 H       
  28 H28            3.3476    -0.3890    -0.0305 H       
  29 H29            3.1908     2.0638    -0.0159 H       
  30 H30           -5.6289     7.3069     0.1224 H       
  31 H31           -5.9394     4.7215     0.1100 H       
  32 H32           -3.8896     2.5069     0.0687 H       
  33 H33            0.1298     3.9598     0.0227 H       
  34 H34           -0.6785     6.2744     0.0485 H       
  35 H35           -0.3450    10.0704     0.0588 H       
  36 H36           -2.3523    11.6475     0.0869 H       
  37 H37           -2.7439    -1.8847    -0.4964 H       
  38 H38           -1.0527    -2.4395    -0.5161 H       
  39 H39           -0.9612    -2.2483     1.9544 H       
  40 H40           -2.6524    -1.6936     1.9742 H       
  41 H41           -2.2648    -3.3488     1.4467 H       
@<TRIPOS>BOND
   1    1    2 ar
   2    1    6 ar
   3    1    8 1
   4    2    3 ar
   5    2    9 1
   6    3    4 ar
   7    3   27 1
   8    4    5 ar
   9    4   28 1
  10    5    6 ar
  11    5   29 1
  12    7    8 am
  13    7    9 am
  14    7   10 2
  15    8   16 1
  16    9   25 1
  17   11   12 1
  18   11   19 1
  19   11   21 1
  20   12   13 2
  21   12   30 1
  22   13   14 1
  23   13   31 1
  24   14   15 ar
  25   14   19 ar
  26   15   16 ar
  27   15   32 1
  28   16   17 ar
  29   17   18 ar
  30   17   33 1
  31   18   19 ar
  32   18   34 1
  33   20   21 1
  34   20   24 1
  35   21   22 2
  36   22   23 1
  37   23   24 2
  38   23   35 1
  39   24   36 1
  40   25   26 1
  41   25   37 1
  42   25   38 1
  43   26   39 1
  44   26   40 1
  45   26   41 1

#	End of record

