#	Name: ASD01200044
#	Creating user name:	WinNT
#	Creation time:	15. 06. 2019 19:08

#	Modifying user name:	WinNT
#	Modification time:	15. 06. 2019 19:08

#	Program:	/corina/corina34_cracker 3.40 0067  02.08.2006

@<TRIPOS>MOLECULE
ASD01200044
  42   44    0    0    0
SMALL
NO_CHARGES


@<TRIPOS>ATOM
   1 C1             0.0595     1.0564     0.1935 C.ar    
   2 C2            -0.2952    -0.0460     0.9623 C.ar    
   3 C3            -1.6189    -0.4167     1.0814 C.ar    
   4 C4            -2.6078     0.3113     0.4327 C.ar    
   5 C5            -2.2560     1.4256    -0.3446 C.ar    
   6 C6            -0.9130     1.7953    -0.4542 C.ar    
   7 C7            -3.2979     2.2046    -1.0375 C.2     
   8 N8            -2.9724     3.3439    -1.6797 N.am    
   9 C9            -3.9543     4.0779    -2.3326 C.2     
  10 N10           -3.7492     5.1834    -2.9780 N.2     
  11 C11           -4.7998     5.7500    -3.5416 C.2     
  12 C12           -5.9470     5.0920    -3.3640 C.2     
  13 S13           -5.6082     3.6512    -2.4084 S.3     
  14 O14           -4.4514     1.8192    -1.0296 O.2     
  15 C15           -4.7109     7.0361    -4.3220 C.3     
  16 O16            1.3672     1.4125     0.0826 O.3     
  17 N17           -3.9421    -0.0629     0.5526 N.pl3   
  18 C18            1.8650     2.3021     0.9823 C.ar    
  19 C19            3.1935     2.7087     0.8994 C.ar    
  20 C20            3.6958     3.6158     1.8184 C.ar    
  21 C21            2.8780     4.1147     2.8152 C.ar    
  22 C22            1.5584     3.7106     2.8979 C.ar    
  23 C23            1.0490     2.8106     1.9807 C.ar    
  24 O24            3.9969     2.2163    -0.0812 O.3     
  25 C25            5.3490     2.6782    -0.1050 C.3     
  26 H26            0.4697    -0.6158     1.4690 H       
  27 H27           -1.8865    -1.2748     1.6800 H       
  28 H28           -0.6344     2.6518    -1.0503 H       
  29 H29           -2.0524     3.6512    -1.6859 H       
  30 H30           -6.9138     5.3891    -3.7427 H       
  31 H31           -4.5163     6.8120    -5.3708 H       
  32 H32           -5.6517     7.5796    -4.2351 H       
  33 H33           -3.9003     7.6470    -3.9246 H       
  34 H34           -4.1706    -0.9762     0.7861 H       
  35 H35           -4.6441     0.5895     0.4028 H       
  36 H36            4.7263     3.9329     1.7563 H       
  37 H37            3.2709     4.8214     3.5311 H       
  38 H38            0.9228     4.1024     3.6783 H       
  39 H39            0.0179     2.4966     2.0475 H       
  40 H40            5.8787     2.2088    -0.9339 H       
  41 H41            5.3610     3.7606    -0.2324 H       
  42 H42            5.8386     2.4174     0.8333 H       
@<TRIPOS>BOND
   1    1    2 ar
   2    1   16 1
   3    1    6 ar
   4    2    3 ar
   5    2   26 1
   6    3    4 ar
   7    3   27 1
   8    4    5 ar
   9    4   17 1
  10    5    6 ar
  11    5    7 1
  12    6   28 1
  13    7    8 am
  14    7   14 2
  15    8    9 1
  16    8   29 1
  17    9   10 2
  18    9   13 1
  19   10   11 1
  20   11   12 2
  21   11   15 1
  22   12   13 1
  23   12   30 1
  24   15   31 1
  25   15   32 1
  26   15   33 1
  27   16   18 1
  28   17   34 1
  29   17   35 1
  30   18   19 ar
  31   18   23 ar
  32   19   20 ar
  33   19   24 1
  34   20   21 ar
  35   20   36 1
  36   21   22 ar
  37   21   37 1
  38   22   23 ar
  39   22   38 1
  40   23   39 1
  41   24   25 1
  42   25   40 1
  43   25   41 1
  44   25   42 1

#	End of record

