#	Name: ASD01880937
#	Creating user name:	WinNT
#	Creation time:	15. 06. 2019 19:41

#	Modifying user name:	WinNT
#	Modification time:	15. 06. 2019 19:41

#	Program:	/corina/corina34_cracker 3.40 0067  02.08.2006

@<TRIPOS>MOLECULE
ASD01880937
  47   50    0    0    0
SMALL
NO_CHARGES


@<TRIPOS>ATOM
   1 N1            -0.0139     1.3123    -0.0044 N.ar    
   2 C2             0.0050    -0.0048    -0.0253 C.ar    
   3 N3             1.1345    -0.6835    -0.0542 N.ar    
   4 C4             2.3048    -0.0614    -0.0637 C.ar    
   5 C5             2.3342     1.3195    -0.0431 C.ar    
   6 C6             1.1198     2.0077    -0.0123 C.ar    
   7 C7             3.6441     2.0644    -0.0525 C.3     
   8 O8             4.7239     1.1290    -0.0841 O.3     
   9 C9             5.9813     1.6395    -0.0963 C.ar    
  10 C10            7.0786     0.7838    -0.1269 C.ar    
  11 C11            8.3501     1.3003    -0.1397 C.ar    
  12 C12            8.5522     2.6846    -0.1222 C.ar    
  13 C13            7.4463     3.5407    -0.0914 C.ar    
  14 C14            6.1713     3.0155    -0.0841 C.ar    
  15 C15            9.7204     0.6706    -0.1718 C.3     
  16 N16           10.6809     1.7800    -0.1709 N.am    
  17 C17           10.0022     2.9397    -0.1423 C.2     
  18 O18           10.5132     4.0431    -0.1345 O.2     
  19 Cl19           7.6784     5.2610    -0.0688 Cl      
  20 N20            1.0960     3.3938     0.0089 N.pl3   
  21 C21           -0.1222     4.0734    -0.0813 C.ar    
  22 C22           -0.3051     5.2680     0.6034 C.ar    
  23 C23           -1.5099     5.9369     0.5121 C.ar    
  24 C24           -2.5337     5.4184    -0.2595 C.ar    
  25 C25           -2.3549     4.2293    -0.9424 C.ar    
  26 C26           -1.1504     3.5585    -0.8604 C.ar    
  27 C27           12.6230     1.6208    -1.6488 C.3     
  28 C28           12.1394     1.6455    -0.1975 C.3     
  29 H29           -0.9310    -0.5435    -0.0183 H       
  30 H30            3.2244    -0.6273    -0.0871 H       
  31 H31            3.6919     2.7043    -0.9337 H       
  32 H32            3.7203     2.6770     0.8458 H       
  33 H33            6.9296    -0.2858    -0.1402 H       
  34 H34            5.3174     3.6763    -0.0607 H       
  35 H35            9.8671     0.0472     0.7103 H       
  36 H36            9.8377     0.0741    -1.0766 H       
  37 H37            1.9248     3.8919     0.0864 H       
  38 H38            0.4938     5.6732     1.2068 H       
  39 H39           -1.6528     6.8658     1.0443 H       
  40 H40           -3.4751     5.9431    -0.3286 H       
  41 H41           -3.1565     3.8269    -1.5439 H       
  42 H42           -1.0114     2.6299    -1.3941 H       
  43 H43           12.1708     0.7759    -2.1681 H       
  44 H44           12.3345     2.5481    -2.1438 H       
  45 H45           13.7082     1.5208    -1.6686 H       
  46 H46           12.5917     2.4905     0.3218 H       
  47 H47           12.4279     0.7182     0.2975 H       
@<TRIPOS>BOND
   1    1    2 ar
   2    1    6 ar
   3    2    3 ar
   4    2   29 1
   5    3    4 ar
   6    4    5 ar
   7    4   30 1
   8    5    6 ar
   9    5    7 1
  10    6   20 1
  11    7    8 1
  12    7   31 1
  13    7   32 1
  14    8    9 1
  15    9   10 ar
  16    9   14 ar
  17   10   11 ar
  18   10   33 1
  19   11   12 ar
  20   11   15 1
  21   12   13 ar
  22   12   17 1
  23   13   14 ar
  24   13   19 1
  25   14   34 1
  26   15   16 1
  27   15   35 1
  28   15   36 1
  29   16   17 am
  30   16   28 1
  31   17   18 2
  32   20   21 1
  33   20   37 1
  34   21   22 ar
  35   21   26 ar
  36   22   23 ar
  37   22   38 1
  38   23   24 ar
  39   23   39 1
  40   24   25 ar
  41   24   40 1
  42   25   26 ar
  43   25   41 1
  44   26   42 1
  45   27   28 1
  46   27   43 1
  47   27   44 1
  48   27   45 1
  49   28   46 1
  50   28   47 1

#	End of record

