#	Name: ASD01900044
#	Creating user name:	WinNT
#	Creation time:	15. 06. 2019 19:51

#	Modifying user name:	WinNT
#	Modification time:	15. 06. 2019 19:51

#	Program:	/corina/corina34_cracker 3.40 0067  02.08.2006

@<TRIPOS>MOLECULE
ASD01900044
  32   33    0    0    0
SMALL
NO_CHARGES


@<TRIPOS>ATOM
   1 C1             0.1306     2.2577    -0.2257 C.3     
   2 C2            -0.7472     1.0648     0.1580 C.3     
   3 C3            -1.5703     0.4275    -0.9317 C.2     
   4 O4            -1.0241    -0.1850    -1.8248 O.2     
   5 O5             1.0591     4.4237     0.5105 O.3     
   6 C6             0.2984     3.3546     0.7939 C.2     
   7 O7            -0.2517     3.2718     1.8664 O.2     
   8 N8            -2.9134     0.5382    -0.9139 N.am    
   9 C9            -3.6714     0.0298    -1.9744 C.ar    
  10 C10           -3.2610    -1.1215    -2.6334 C.ar    
  11 C11           -4.0120    -1.6220    -3.6806 C.ar    
  12 C12           -5.1715    -0.9765    -4.0725 C.ar    
  13 C13           -5.5827     0.1709    -3.4174 C.ar    
  14 C14           -4.8385     0.6724    -2.3660 C.ar    
  15 Cl15          -7.0381     0.9777    -3.9122 Cl      
  16 Cl16          -3.4995    -3.0613    -4.5050 Cl      
  17 C17            0.7723     0.9032     0.0817 C.3     
  18 C18            1.3399     0.1070    -1.0951 C.3     
  19 C19            1.5353     0.7661     1.4008 C.3     
  20 H20            0.1128     2.5816    -1.2664 H       
  21 H21           -1.2037     1.0736     1.1478 H       
  22 H22            1.1367     5.1013     1.1960 H       
  23 H23           -3.3546     0.9703    -0.1659 H       
  24 H24           -2.3557    -1.6253    -2.3284 H       
  25 H25           -5.7564    -1.3688    -4.8913 H       
  26 H26           -5.1600     1.5678    -1.8548 H       
  27 H27            2.4268     0.0738    -1.0208 H       
  28 H28            0.9429    -0.9078    -1.0723 H       
  29 H29            1.0542     0.5880    -2.0306 H       
  30 H30            0.8804     1.0364     2.2291 H       
  31 H31            1.8684    -0.2646     1.5224 H       
  32 H32            2.4006     1.4288     1.3905 H       
@<TRIPOS>BOND
   1    1    2 1
   2    1   17 1
   3    1    6 1
   4    1   20 1
   5    2    3 1
   6    2   17 1
   7    2   21 1
   8    3    4 2
   9    3    8 am
  10    5    6 1
  11    5   22 1
  12    6    7 2
  13    8    9 1
  14    8   23 1
  15    9   10 ar
  16    9   14 ar
  17   10   11 ar
  18   10   24 1
  19   11   12 ar
  20   11   16 1
  21   12   13 ar
  22   12   25 1
  23   13   14 ar
  24   13   15 1
  25   14   26 1
  26   17   18 1
  27   17   19 1
  28   18   27 1
  29   18   28 1
  30   18   29 1
  31   19   30 1
  32   19   31 1
  33   19   32 1

#	End of record

