#	Name: ASD06350011
#	Creating user name:	WinNT
#	Creation time:	15. 06. 2019 21:06

#	Modifying user name:	WinNT
#	Modification time:	15. 06. 2019 21:06

#	Program:	/corina/corina34_cracker 3.40 0067  02.08.2006

@<TRIPOS>MOLECULE
ASD06350011
  25   26    0    0    0
SMALL
NO_CHARGES


@<TRIPOS>ATOM
   1 O1            -0.1947     1.0550    -1.5196 O.3     
   2 C2            -0.1188    -0.1998    -1.0325 C.2     
   3 O3             0.9423    -0.7930    -1.0434 O.2     
   4 C4            -1.3185    -0.8504    -0.4884 C.2     
   5 C5            -1.2538    -2.1480     0.0186 C.2     
   6 C6            -2.4129    -2.7327     0.5271 C.2     
   7 C7            -3.5823    -2.0425     0.5245 C.2     
   8 N8            -3.6526    -0.7809     0.0332 N.am    
   9 C9            -2.5619    -0.1674    -0.4642 C.2     
  10 O10           -2.6447     0.9674    -0.9011 O.2     
  11 C11           -4.8780    -0.1028     0.0481 C.ar    
  12 C12           -5.7420    -0.2050    -1.0339 C.ar    
  13 C13           -6.9506     0.4642    -1.0185 C.ar    
  14 C14           -7.3015     1.2368     0.0749 C.ar    
  15 C15           -6.4402     1.3413     1.1574 C.ar    
  16 C16           -5.2327     0.6679     1.1476 C.ar    
  17 F17           -6.7838     2.0966     2.2235 F       
  18 F18           -8.4839     1.8903     0.0877 F       
  19 H19            0.6210     1.4412    -1.8669 H       
  20 H20           -0.3206    -2.6916     0.0170 H       
  21 H21           -2.3807    -3.7368     0.9237 H       
  22 H22           -4.4730    -2.5073     0.9207 H       
  23 H23           -5.4692    -0.8073    -1.8878 H       
  24 H24           -7.6220     0.3846    -1.8606 H       
  25 H25           -4.5620     0.7486     1.9902 H       
@<TRIPOS>BOND
   1    1    2 1
   2    1   19 1
   3    2    3 2
   4    2    4 1
   5    4    5 2
   6    4    9 1
   7    5    6 1
   8    5   20 1
   9    6    7 2
  10    6   21 1
  11    7    8 1
  12    7   22 1
  13    8    9 am
  14    8   11 1
  15    9   10 2
  16   11   12 ar
  17   11   16 ar
  18   12   13 ar
  19   12   23 1
  20   13   14 ar
  21   13   24 1
  22   14   15 ar
  23   14   18 1
  24   15   16 ar
  25   15   17 1
  26   16   25 1

#	End of record

