#	Name: ASD01911837
#	Creating user name:	WinNT
#	Creation time:	15. 06. 2019 19:58

#	Modifying user name:	WinNT
#	Modification time:	15. 06. 2019 19:58

#	Program:	/corina/corina34_cracker 3.40 0067  02.08.2006

@<TRIPOS>MOLECULE
ASD01911837
  40   42    0    0    0
SMALL
NO_CHARGES


@<TRIPOS>ATOM
   1 C1            -1.0606    -0.5024    -2.0832 C.ar    
   2 C2            -1.0564     0.0559    -0.8084 C.ar    
   3 C3            -1.0053     1.4361    -0.6777 C.ar    
   4 N4            -0.9617     2.2116    -1.7430 N.ar    
   5 C5            -0.9643     1.7146    -2.9643 C.ar    
   6 C6            -1.0133     0.3490    -3.1749 C.ar    
   7 O7            -1.1021    -0.7394     0.2925 O.3     
   8 C8            -1.1524    -2.0845     0.1061 C.ar    
   9 C9            -0.0018    -2.7818    -0.2363 C.ar    
  10 C10           -0.0516    -4.1494    -0.4266 C.ar    
  11 C11           -1.2460    -4.8275    -0.2764 C.ar    
  12 C12           -2.4005    -4.1351     0.0662 C.ar    
  13 C13           -2.3514    -2.7619     0.2634 C.ar    
  14 N14           -3.6096    -4.8213     0.2173 N.am    
  15 C15           -4.7717    -4.2166    -0.0992 C.2     
  16 C16           -6.0558    -4.9024     0.1580 C.ar    
  17 C17           -6.0675    -6.1762     0.7285 C.ar    
  18 C18           -7.2681    -6.8133     0.9677 C.ar    
  19 C19           -8.4609    -6.1939     0.6439 C.ar    
  20 C20           -8.4592    -4.9270     0.0755 C.ar    
  21 C21           -7.2607    -4.2763    -0.1634 C.ar    
  22 O22           -4.7640    -3.1073    -0.5962 O.2     
  23 O23           -9.6348    -4.3230    -0.2411 O.3     
  24 C24          -10.8333    -5.0495     0.0382 C.3     
  25 H25           -1.0953    -1.5734    -2.2180 H       
  26 H26           -1.0015     1.8799     0.3069 H       
  27 H27           -0.9280     2.3833    -3.8116 H       
  28 H28           -1.0147    -0.0492    -4.1788 H       
  29 H29            0.9333    -2.2546    -0.3545 H       
  30 H30            0.8448    -4.6893    -0.6937 H       
  31 H31           -1.2821    -5.8965    -0.4257 H       
  32 H32           -3.2475    -2.2212     0.5297 H       
  33 H33           -3.6118    -5.7325     0.5499 H       
  34 H34           -5.1375    -6.6631     0.9824 H       
  35 H35           -7.2759    -7.7990     1.4089 H       
  36 H36           -9.3974    -6.6973     0.8334 H       
  37 H37           -7.2580    -3.2909    -0.6054 H       
  38 H38          -11.6965    -4.4555    -0.2619 H       
  39 H39          -10.8271    -5.9877    -0.5167 H       
  40 H40          -10.8902    -5.2595     1.1063 H       
@<TRIPOS>BOND
   1    1    2 ar
   2    1    6 ar
   3    1   25 1
   4    2    3 ar
   5    2    7 1
   6    3    4 ar
   7    3   26 1
   8    4    5 ar
   9    5    6 ar
  10    5   27 1
  11    6   28 1
  12    7    8 1
  13    8    9 ar
  14    8   13 ar
  15    9   10 ar
  16    9   29 1
  17   10   11 ar
  18   10   30 1
  19   11   12 ar
  20   11   31 1
  21   12   13 ar
  22   12   14 1
  23   13   32 1
  24   14   15 am
  25   14   33 1
  26   15   16 1
  27   15   22 2
  28   16   17 ar
  29   16   21 ar
  30   17   18 ar
  31   17   34 1
  32   18   19 ar
  33   18   35 1
  34   19   20 ar
  35   19   36 1
  36   20   21 ar
  37   20   23 1
  38   21   37 1
  39   23   24 1
  40   24   38 1
  41   24   39 1
  42   24   40 1

#	End of record

