#	Name: ASD01883492
#	Creating user name:	WinNT
#	Creation time:	15. 06. 2019 19:46

#	Modifying user name:	WinNT
#	Modification time:	15. 06. 2019 19:46

#	Program:	/corina/corina34_cracker 3.40 0067  02.08.2006

@<TRIPOS>MOLECULE
ASD01883492
  47   49    0    0    0
SMALL
NO_CHARGES


@<TRIPOS>ATOM
   1 N1            -0.0161     1.3416     0.0135 N.am    
   2 C2            -0.0058     0.0081    -0.1695 C.2     
   3 C3            -1.2228    -0.7136    -0.1683 C.2     
   4 C4            -2.4239    -0.0108     0.0261 C.2     
   5 C5            -2.3696     1.3830     0.2120 C.2     
   6 C6            -1.1777     2.0189     0.2064 C.2     
   7 O7             1.0509    -0.5771    -0.3364 O.2     
   8 C8            -1.2303    -2.1324    -0.3619 C.1     
   9 N9            -1.2362    -3.2580    -0.5155 N.1     
  10 C10            1.2513     2.0764     0.0105 C.3     
  11 C11            1.5764     2.5267    -1.4152 C.3     
  12 C12            2.9000     3.2941    -1.4183 C.3     
  13 C13            3.2877     3.6363    -2.8582 C.3     
  14 N14           -3.6309    -0.6732     0.0341 N.pl3   
  15 C15            2.7431     4.5849    -0.6119 C.3     
  16 C16           -4.6555    -0.4045    -0.9807 C.3     
  17 C17           -6.0062    -0.2882    -0.3200 C.ar    
  18 C18           -6.2168    -0.6428     0.9935 C.ar    
  19 C19           -5.1194    -1.1573     1.8873 C.3     
  20 C20           -3.9430    -1.6842     1.0579 C.3     
  21 C21           -7.0608     0.1950    -1.0828 C.ar    
  22 C22           -8.3219     0.3166    -0.5370 C.ar    
  23 C23           -8.5368    -0.0463     0.7798 C.ar    
  24 C24           -7.4893    -0.5232     1.5394 C.ar    
  25 H25           -3.2802     1.9437     0.3628 H       
  26 H26           -1.1485     3.0889     0.3501 H       
  27 H27            1.1664     2.9498     0.6570 H       
  28 H28            2.0476     1.4288     0.3774 H       
  29 H29            1.6613     1.6533    -2.0616 H       
  30 H30            0.7801     3.1743    -1.7821 H       
  31 H31            3.6786     2.6775    -0.9691 H       
  32 H32            2.5092     4.2529    -3.3074 H       
  33 H33            4.2307     4.1830    -2.8605 H       
  34 H34            3.3995     2.7167    -3.4327 H       
  35 H35            3.6861     5.1316    -0.6142 H       
  36 H36            1.9646     5.2015    -1.0611 H       
  37 H37            2.4669     4.3411     0.4139 H       
  38 H38           -4.4215     0.5279    -1.4945 H       
  39 H39           -4.6739    -1.2210    -1.7026 H       
  40 H40           -4.7729    -0.3490     2.5312 H       
  41 H41           -5.5101    -1.9651     2.5061 H       
  42 H42           -4.2194    -2.6251     0.5819 H       
  43 H43           -3.0767    -1.8364     1.7017 H       
  44 H44           -6.8927     0.4775    -2.1116 H       
  45 H45           -9.1378     0.6941    -1.1355 H       
  46 H46           -9.5224     0.0434     1.2122 H       
  47 H47           -7.6594    -0.8070     2.5675 H       
@<TRIPOS>BOND
   1    1    2 am
   2    1   10 1
   3    1    6 1
   4    2    3 1
   5    2    7 2
   6    3    4 2
   7    3    8 1
   8    4    5 1
   9    4   14 1
  10    5    6 2
  11    5   25 1
  12    6   26 1
  13    8    9 3
  14   10   11 1
  15   10   27 1
  16   10   28 1
  17   11   12 1
  18   11   29 1
  19   11   30 1
  20   12   13 1
  21   12   15 1
  22   12   31 1
  23   13   32 1
  24   13   33 1
  25   13   34 1
  26   14   16 1
  27   14   20 1
  28   15   35 1
  29   15   36 1
  30   15   37 1
  31   16   17 1
  32   16   38 1
  33   16   39 1
  34   17   18 ar
  35   17   21 ar
  36   18   19 1
  37   18   24 ar
  38   19   20 1
  39   19   40 1
  40   19   41 1
  41   20   42 1
  42   20   43 1
  43   21   22 ar
  44   21   44 1
  45   22   23 ar
  46   22   45 1
  47   23   24 ar
  48   23   46 1
  49   24   47 1

#	End of record

