#	Name: ASD03091289
#	Creating user name:	WinNT
#	Creation time:	15. 06. 2019 20:30

#	Modifying user name:	WinNT
#	Modification time:	15. 06. 2019 20:30

#	Program:	/corina/corina34_cracker 3.40 0067  02.08.2006

@<TRIPOS>MOLECULE
ASD03091289
  51   55    0    0    0
SMALL
NO_CHARGES


@<TRIPOS>ATOM
   1 N1            -0.0125     1.1987     0.4039 N.2     
   2 C2             0.0030    -0.0275    -0.0517 C.2     
   3 N3             1.1383    -0.6394    -0.5077 N.am    
   4 C4             2.3215     0.0168    -0.5049 C.2     
   5 C5             2.3334     1.3947     0.0012 C.ar    
   6 C6             3.5050     2.1512     0.0429 C.ar    
   7 C7             3.4699     3.4293     0.5211 C.ar    
   8 C8             2.2716     3.9889     0.9704 C.ar    
   9 C9             1.0958     3.2576     0.9394 C.ar    
  10 C10            1.1126     1.9502     0.4532 C.ar    
  11 O11            3.3396    -0.5164    -0.9071 O.2     
  12 C12            1.0725    -2.0167    -1.0027 C.3     
  13 C13           -1.2649    -0.7870    -0.0745 C.ar    
  14 C14           -2.1410    -0.7211     1.0103 C.ar    
  15 C15           -3.3237    -1.4327     0.9822 C.ar    
  16 C16           -3.6409    -2.2103    -0.1190 C.ar    
  17 C17           -2.7762    -2.2796    -1.1963 C.ar    
  18 C18           -1.5937    -1.5686    -1.1830 C.ar    
  19 Cl19          -4.4149    -1.3530     2.3300 Cl      
  20 N20            1.6230     7.4955     3.3299 N.3     
  21 C21            0.8149     7.1948     2.1383 C.3     
  22 C22            0.8950     5.7157     1.7940 C.3     
  23 N23            2.2592     5.2937     1.4544 N.3     
  24 C24            3.1488     5.4332     2.6158 C.3     
  25 C25            3.8627     6.7762     2.5794 C.3     
  26 C26            2.9635     7.9451     2.9277 C.3     
  27 C27            1.6552     6.4754     4.3559 C.3     
  28 C28            2.3487     5.2074     3.8856 C.3     
  29 H29            4.4365     1.7269    -0.3017 H       
  30 H30            4.3778     4.0134     0.5526 H       
  31 H31            0.1729     3.6962     1.2891 H       
  32 H32            0.7904    -2.0114    -2.0555 H       
  33 H33            2.0479    -2.4902    -0.8903 H       
  34 H34            0.3304    -2.5734    -0.4305 H       
  35 H35           -1.8940    -0.1151     1.8695 H       
  36 H36           -4.5673    -2.7653    -0.1365 H       
  37 H37           -3.0293    -2.8882    -2.0519 H       
  38 H38           -0.9220    -1.6201    -2.0272 H       
  39 H39           -0.2238     7.4627     2.3319 H       
  40 H40            1.1850     7.7800     1.2964 H       
  41 H41            0.5483     5.1350     2.6489 H       
  42 H42            0.2416     5.5150     0.9449 H       
  43 H43            3.9023     4.6476     2.5595 H       
  44 H44            4.6919     6.7504     3.2863 H       
  45 H45            4.2651     6.9310     1.5783 H       
  46 H46            2.8743     8.5968     2.0585 H       
  47 H47            3.4113     8.5067     3.7475 H       
  48 H48            2.1837     6.8655     5.2258 H       
  49 H49            0.6327     6.2326     4.6452 H       
  50 H50            1.5967     4.4407     3.6990 H       
  51 H51            3.0203     4.8590     4.6703 H       
@<TRIPOS>BOND
   1    1    2 2
   2    1   10 1
   3    2    3 1
   4    2   13 1
   5    3    4 am
   6    3   12 1
   7    4    5 1
   8    4   11 2
   9    5    6 ar
  10    5   10 ar
  11    6    7 ar
  12    6   29 1
  13    7    8 ar
  14    7   30 1
  15    8    9 ar
  16    8   23 1
  17    9   10 ar
  18    9   31 1
  19   12   32 1
  20   12   33 1
  21   12   34 1
  22   13   14 ar
  23   13   18 ar
  24   14   15 ar
  25   14   35 1
  26   15   16 ar
  27   15   19 1
  28   16   17 ar
  29   16   36 1
  30   17   18 ar
  31   17   37 1
  32   18   38 1
  33   20   21 1
  34   20   26 1
  35   20   27 1
  36   21   22 1
  37   21   39 1
  38   21   40 1
  39   22   23 1
  40   22   41 1
  41   22   42 1
  42   23   24 1
  43   24   25 1
  44   24   28 1
  45   24   43 1
  46   25   26 1
  47   25   44 1
  48   25   45 1
  49   26   46 1
  50   26   47 1
  51   27   28 1
  52   27   48 1
  53   27   49 1
  54   28   50 1
  55   28   51 1

#	End of record

