#	Name: ASD02039465
#	Creating user name:	WinNT
#	Creation time:	15. 06. 2019 20:18

#	Modifying user name:	WinNT
#	Modification time:	15. 06. 2019 20:18

#	Program:	/corina/corina34_cracker 3.40 0067  02.08.2006

@<TRIPOS>MOLECULE
ASD02039465
  61   65    0    0    0
SMALL
NO_CHARGES


@<TRIPOS>ATOM
   1 C1             0.1326     1.1901     0.0647 C.ar    
   2 C2             0.4143    -0.1576     0.1956 C.ar    
   3 C3             1.2579     2.1908     0.0056 C.3     
   4 N4             1.7446     2.2975    -1.3720 N.am    
   5 C5             1.2828     3.2757    -2.1760 C.2     
   6 C6             0.2174     4.1765    -1.7029 C.2     
   7 C7            -0.4147     5.1348    -2.4399 C.2     
   8 N8            -0.3183     4.2003    -0.4557 N.2     
   9 C9            -1.2329     5.1253    -0.4079 C.2     
  10 N10           -1.3187     5.7257    -1.6235 N.pl3   
  11 O11            1.7457     3.4148    -3.2921 O.2     
  12 C12           -2.2261     6.8173    -1.9858 C.3     
  13 C13            2.7333     1.3410    -1.8758 C.3     
  14 C14           -0.6127    -1.0825     0.2497 C.ar    
  15 C15           -2.2162     0.6949     0.0312 C.ar    
  16 C16           -1.1765     1.6206    -0.0177 C.ar    
  17 C17           -3.6248     1.1517    -0.0574 C.ar    
  18 C18           -4.0848     2.1820     0.7573 C.ar    
  19 N19           -5.3356     2.5915     0.6824 N.ar    
  20 C20           -6.1980     2.0461    -0.1617 C.ar    
  21 C21           -5.8111     1.0107    -1.0084 C.ar    
  22 C22           -4.5081     0.5563    -0.9655 C.ar    
  23 C23           -1.9277    -0.6634     0.1735 C.ar    
  24 C24            2.3122     0.6513    -3.1841 C.3     
  25 C25            3.7733     0.7992    -3.6404 C.3     
  26 C26            3.8700     1.9953    -2.6786 C.3     
  27 F27           -2.9307    -1.5669     0.2263 F       
  28 N28           -7.5061     2.5127    -0.2025 N.3     
  29 C29           -7.7077     3.6012     0.7649 C.3     
  30 C30           -8.4624     1.4216     0.0344 C.3     
  31 C31           -9.8886     1.9667    -0.0783 C.3     
  32 O32          -10.0564     3.0441     0.8471 O.3     
  33 C33           -9.1414     4.1245     0.6449 C.3     
  34 H34            1.4403    -0.4893     0.2555 H       
  35 H35            0.8970     3.1635     0.3399 H       
  36 H36            2.0705     1.8624     0.6537 H       
  37 H37           -0.2292     5.3762    -3.4761 H       
  38 H38           -1.8294     5.3734     0.4575 H       
  39 H39           -1.7420     7.7734    -1.7868 H       
  40 H40           -2.4726     6.7484    -3.0454 H       
  41 H41           -3.1389     6.7422    -1.3948 H       
  42 H42            3.0809     0.6483    -1.1093 H       
  43 H43           -0.3869    -2.1337     0.3512 H       
  44 H44           -1.3938     2.6728    -0.1273 H       
  45 H45           -3.4101     2.6507     1.4583 H       
  46 H46           -6.5207     0.5712    -1.6936 H       
  47 H47           -4.1805    -0.2454    -1.6108 H       
  48 H48            1.9991    -0.3842    -3.0507 H       
  49 H49            1.6081     1.2342    -3.7780 H       
  50 H50            4.4065    -0.0414    -3.3568 H       
  51 H51            3.8772     1.0736    -4.6902 H       
  52 H52            3.5919     2.9456    -3.1343 H       
  53 H53            4.8147     2.0448    -2.1371 H       
  54 H54           -7.5404     3.2263     1.7746 H       
  55 H55           -7.0066     4.4091     0.5551 H       
  56 H56           -8.3124     0.6383    -0.7087 H       
  57 H57           -8.3072     1.0118     1.0324 H       
  58 H58          -10.0613     2.3276    -1.0923 H       
  59 H59          -10.6005     1.1742     0.1527 H       
  60 H60           -9.3129     4.8926     1.3989 H       
  61 H61           -9.2923     4.5482    -0.3480 H       
@<TRIPOS>BOND
   1    1    2 ar
   2    1    3 1
   3    1   16 ar
   4    2   14 ar
   5    2   34 1
   6    3    4 1
   7    3   35 1
   8    3   36 1
   9    4    5 am
  10    4   13 1
  11    5    6 1
  12    5   11 2
  13    6    7 2
  14    6    8 1
  15    7   10 1
  16    7   37 1
  17    8    9 2
  18    9   10 1
  19    9   38 1
  20   10   12 1
  21   12   39 1
  22   12   40 1
  23   12   41 1
  24   13   24 1
  25   13   26 1
  26   13   42 1
  27   14   23 ar
  28   14   43 1
  29   15   16 ar
  30   15   17 1
  31   15   23 ar
  32   16   44 1
  33   17   18 ar
  34   17   22 ar
  35   18   19 ar
  36   18   45 1
  37   19   20 ar
  38   20   21 ar
  39   20   28 1
  40   21   22 ar
  41   21   46 1
  42   22   47 1
  43   23   27 1
  44   24   25 1
  45   24   48 1
  46   24   49 1
  47   25   26 1
  48   25   50 1
  49   25   51 1
  50   26   52 1
  51   26   53 1
  52   28   29 1
  53   28   30 1
  54   29   33 1
  55   29   54 1
  56   29   55 1
  57   30   31 1
  58   30   56 1
  59   30   57 1
  60   31   32 1
  61   31   58 1
  62   31   59 1
  63   32   33 1
  64   33   60 1
  65   33   61 1

#	End of record

