#	Name: ASD01911845
#	Creating user name:	WinNT
#	Creation time:	15. 06. 2019 19:58

#	Modifying user name:	WinNT
#	Modification time:	15. 06. 2019 19:58

#	Program:	/corina/corina34_cracker 3.40 0067  02.08.2006

@<TRIPOS>MOLECULE
ASD01911845
  35   37    0    0    0
SMALL
NO_CHARGES


@<TRIPOS>ATOM
   1 C1            -1.0603    -0.5027    -2.0838 C.ar    
   2 C2            -1.0559     0.0557    -0.8091 C.ar    
   3 C3            -1.0046     1.4359    -0.6785 C.ar    
   4 N4            -0.9610     2.2113    -1.7439 N.ar    
   5 C5            -0.9638     1.7142    -2.9651 C.ar    
   6 C6            -1.0130     0.3486    -3.1756 C.ar    
   7 O7            -1.1016    -0.7395     0.2919 O.3     
   8 C8            -1.1522    -2.0846     0.1056 C.ar    
   9 C9            -0.0017    -2.7821    -0.2369 C.ar    
  10 C10           -0.0515    -4.1498    -0.4266 C.ar    
  11 C11           -1.2459    -4.8278    -0.2757 C.ar    
  12 C12           -2.4003    -4.1353     0.0670 C.ar    
  13 C13           -2.3512    -2.7619     0.2631 C.ar    
  14 N14           -3.6091    -4.8214     0.2193 N.am    
  15 C15           -4.7715    -4.2170    -0.0971 C.2     
  16 C16           -6.0580    -4.9042     0.1616 C.ar    
  17 C17           -7.2559    -4.2743    -0.1677 C.ar    
  18 C18           -8.4518    -4.9300     0.0804 C.ar    
  19 C19           -8.4076    -6.1930     0.6493 C.ar    
  20 N20           -6.0594    -6.1175     0.7004 N.ar    
  21 O21           -4.7642    -3.1083    -0.5948 O.2     
  22 C22           -7.1793    -6.7595     0.9514 C.ar    
  23 H23           -1.0952    -1.5737    -2.2185 H       
  24 H24           -1.0007     1.8798     0.3060 H       
  25 H25           -0.9275     2.3829    -3.8125 H       
  26 H26           -1.0145    -0.0497    -4.1795 H       
  27 H27            0.9334    -2.2550    -0.3556 H       
  28 H28            0.8448    -4.6899    -0.6937 H       
  29 H29           -1.2821    -5.8969    -0.4245 H       
  30 H30           -3.2472    -2.2210     0.5296 H       
  31 H31           -3.6111    -5.7323     0.5527 H       
  32 H32           -7.2530    -3.2889    -0.6098 H       
  33 H33           -9.3964    -4.4670    -0.1638 H       
  34 H34           -9.3214    -6.7303     0.8556 H       
  35 H35           -7.1412    -7.7434     1.3951 H       
@<TRIPOS>BOND
   1    1    2 ar
   2    1    6 ar
   3    1   23 1
   4    2    3 ar
   5    2    7 1
   6    3    4 ar
   7    3   24 1
   8    4    5 ar
   9    5    6 ar
  10    5   25 1
  11    6   26 1
  12    7    8 1
  13    8    9 ar
  14    8   13 ar
  15    9   10 ar
  16    9   27 1
  17   10   11 ar
  18   10   28 1
  19   11   12 ar
  20   11   29 1
  21   12   13 ar
  22   12   14 1
  23   13   30 1
  24   14   15 am
  25   14   31 1
  26   15   16 1
  27   15   21 2
  28   16   17 ar
  29   16   20 ar
  30   17   18 ar
  31   17   32 1
  32   18   19 ar
  33   18   33 1
  34   19   22 ar
  35   19   34 1
  36   20   22 ar
  37   22   35 1

#	End of record

