#	Name: ASD00843543
#	Creating user name:	WinNT
#	Creation time:	15. 06. 2019 18:47

#	Modifying user name:	WinNT
#	Modification time:	15. 06. 2019 18:47

#	Program:	/corina/corina34_cracker 3.40 0067  02.08.2006

@<TRIPOS>MOLECULE
ASD00843543
 101  106    0    0    0
SMALL
NO_CHARGES


@<TRIPOS>ATOM
   1 F1             5.6245    -2.2962    -2.2177 F       
   2 N2             0.7593     1.1964    -0.6914 N.ar    
   3 C3             0.9728    -0.0951    -0.8793 C.ar    
   4 C4             0.8695    -0.9907     0.1777 C.ar    
   5 C5             0.5395    -0.5140     1.4341 C.ar    
   6 C6             0.3233     0.8485     1.5897 C.ar    
   7 C7             0.4432     1.6806     0.4948 C.ar    
   8 C8             1.1132    -2.4616    -0.0412 C.3     
   9 C9             0.8093    -3.2427     1.2192 C.2     
  10 C10            0.2669    -2.9759    -1.2075 C.3     
  11 C11           -1.1814    -2.6374    -0.9647 C.2     
  12 N12           -2.1245    -3.0480    -1.8356 N.am    
  13 O13           -1.4983    -1.9956     0.0143 O.2     
  14 C14           -3.5232    -2.6266    -1.6781 C.3     
  15 C15           -4.4146    -3.8723    -1.6608 C.3     
  16 C16           -4.1464    -4.7041    -2.9172 C.3     
  17 C17           -2.6844    -5.1564    -2.9292 C.3     
  18 C18           -1.7724    -3.9206    -2.9640 C.3     
  19 N19           -5.0233    -5.8826    -2.9203 N.3     
  20 C20           -4.8788    -6.6433    -4.1694 C.3     
  21 C21           -5.7466    -7.9021    -4.1002 C.3     
  22 N22           -7.1477    -7.5166    -3.8808 N.3     
  23 C23           -7.2922    -6.7559    -2.6318 C.3     
  24 C24           -6.4244    -5.4971    -2.7009 C.3     
  25 C25           -8.0246    -8.6951    -3.8839 C.3     
  26 O26           -0.2632    -3.3134     1.7814 O.2     
  27 N27            1.9496    -3.8433     1.5985 N.am    
  28 C28            2.5810    -2.7237    -0.2924 C.ar    
  29 C29            3.0094    -3.5599     0.7335 C.ar    
  30 C30            3.4490    -2.3015    -1.2751 C.ar    
  31 C31            4.7717    -2.7084    -1.2544 C.ar    
  32 C32            5.2202    -3.5491    -0.2307 C.ar    
  33 C33            4.3361    -3.9732     0.7610 C.ar    
  34 C34            1.7273    -6.4579     2.4284 C.ar    
  35 C35            0.4577    -6.7842     1.9736 C.ar    
  36 C36            2.7144    -7.4239     2.4774 C.ar    
  37 C37            2.4401    -8.7163     2.0734 C.ar    
  38 C38            1.1717    -9.0476     1.6177 C.ar    
  39 C39            0.1798    -8.0806     1.5680 C.ar    
  40 O40            0.9023   -10.3191     1.2208 O.3     
  41 O41           -0.5126    -5.8340     1.9260 O.3     
  42 C42            1.9718   -11.2636     1.2994 C.3     
  43 C43           -1.7960    -6.2407     1.4470 C.3     
  44 C44           -2.7500    -5.0446     1.4658 C.3     
  45 C45           -9.4512    -8.2703    -3.5300 C.3     
  46 C46           -8.0131    -9.3357    -5.2734 C.3     
  47 C47            6.5870    -3.9752    -0.2012 C.1     
  48 N48            7.6713    -4.3132    -0.1779 N.1     
  49 S49            2.0834    -4.8090     2.9371 S.o2    
  50 O50            3.4546    -4.7911     3.3093 O.2     
  51 O51            1.0345    -4.4247     3.8155 O.2     
  52 O52            1.2953    -0.5499    -2.1162 O.3     
  53 C53            1.2925     0.4047    -3.1795 C.3     
  54 C54            1.7774    -0.2646    -4.4671 C.3     
  55 F55            3.0402    -0.8275    -4.2531 F       
  56 F56            0.8764    -1.2682    -4.8389 F       
  57 H57            0.4517    -1.1866     2.2745 H       
  58 H58            0.0638     1.2530     2.5568 H       
  59 H59            0.2764     2.7414     0.6105 H       
  60 H60            0.5997    -2.5058    -2.1329 H       
  61 H61            0.3787    -4.0571    -1.2885 H       
  62 H62           -3.6375    -2.0824    -0.7406 H       
  63 H63           -3.8077    -1.9852    -2.5123 H       
  64 H64           -4.1906    -4.4677    -0.7757 H       
  65 H65           -5.4617    -3.5702    -1.6412 H       
  66 H66           -4.3469    -4.1001    -3.8022 H       
  67 H67           -2.4767    -5.7396    -2.0321 H       
  68 H68           -2.5001    -5.7681    -3.8122 H       
  69 H69           -1.9155    -3.3873    -3.9038 H       
  70 H70           -0.7318    -4.2318    -2.8729 H       
  71 H71           -5.1985    -6.0269    -5.0096 H       
  72 H72           -3.8352    -6.9279    -4.3031 H       
  73 H73           -5.6635    -8.4530    -5.0371 H       
  74 H74           -5.4094    -8.5315    -3.2767 H       
  75 H75           -8.3358    -6.4712    -2.4981 H       
  76 H76           -6.9725    -7.3723    -1.7916 H       
  77 H77           -6.5075    -4.9462    -1.7641 H       
  78 H78           -6.7616    -4.8677    -3.5245 H       
  79 H79           -7.6671    -9.4159    -3.1486 H       
  80 H80            3.0968    -1.6523    -2.0631 H       
  81 H81            4.6828    -4.6225     1.5514 H       
  82 H82            3.7020    -7.1680     2.8317 H       
  83 H83            3.2133    -9.4693     2.1119 H       
  84 H84           -0.8079    -8.3366     1.2140 H       
  85 H85            2.7981   -10.9298     0.6719 H       
  86 H86            2.3098   -11.3446     2.3325 H       
  87 H87            1.6232   -12.2368     0.9538 H       
  88 H88           -1.7016    -6.6141     0.4273 H       
  89 H89           -2.1898    -7.0296     2.0878 H       
  90 H90           -3.7289    -5.3549     1.1004 H       
  91 H91           -2.8444    -4.6712     2.4854 H       
  92 H92           -2.3562    -4.2558     0.8249 H       
  93 H93           -9.4593    -7.8139    -2.5401 H       
  94 H94           -9.8086    -7.5495    -4.2653 H       
  95 H95          -10.1019    -9.1447    -3.5323 H       
  96 H96           -6.9968    -9.6384    -5.5255 H       
  97 H97           -8.6638   -10.2102    -5.2757 H       
  98 H98           -8.3706    -8.6149    -6.0087 H       
  99 H99            0.2807     0.7831    -3.3255 H       
 100 H100           1.9567     1.2314    -2.9274 H       
 101 H101           1.8410     0.4791    -5.2615 H       
@<TRIPOS>BOND
   1    1   31 1
   2    2    3 ar
   3    2    7 ar
   4    3    4 ar
   5    3   52 1
   6    4    5 ar
   7    4    8 1
   8    5    6 ar
   9    5   57 1
  10    6    7 ar
  11    6   58 1
  12    7   59 1
  13    8    9 1
  14    8   10 1
  15    8   28 1
  16    9   26 2
  17    9   27 am
  18   10   11 1
  19   10   60 1
  20   10   61 1
  21   11   12 am
  22   11   13 2
  23   12   14 1
  24   12   18 1
  25   14   15 1
  26   14   62 1
  27   14   63 1
  28   15   16 1
  29   15   64 1
  30   15   65 1
  31   16   17 1
  32   16   19 1
  33   16   66 1
  34   17   18 1
  35   17   67 1
  36   17   68 1
  37   18   69 1
  38   18   70 1
  39   19   20 1
  40   19   24 1
  41   20   21 1
  42   20   71 1
  43   20   72 1
  44   21   22 1
  45   21   73 1
  46   21   74 1
  47   22   23 1
  48   22   25 1
  49   23   24 1
  50   23   75 1
  51   23   76 1
  52   24   77 1
  53   24   78 1
  54   25   45 1
  55   25   46 1
  56   25   79 1
  57   27   49 am
  58   27   29 1
  59   28   29 ar
  60   28   30 ar
  61   29   33 ar
  62   30   31 ar
  63   30   80 1
  64   31   32 ar
  65   32   33 ar
  66   32   47 1
  67   33   81 1
  68   34   35 ar
  69   34   36 ar
  70   34   49 1
  71   35   41 1
  72   35   39 ar
  73   36   37 ar
  74   36   82 1
  75   37   38 ar
  76   37   83 1
  77   38   39 ar
  78   38   40 1
  79   39   84 1
  80   40   42 1
  81   41   43 1
  82   42   85 1
  83   42   86 1
  84   42   87 1
  85   43   44 1
  86   43   88 1
  87   43   89 1
  88   44   90 1
  89   44   91 1
  90   44   92 1
  91   45   93 1
  92   45   94 1
  93   45   95 1
  94   46   96 1
  95   46   97 1
  96   46   98 1
  97   47   48 3
  98   49   50 2
  99   49   51 2
 100   52   53 1
 101   53   54 1
 102   53   99 1
 103   53  100 1
 104   54   55 1
 105   54   56 1
 106   54  101 1

#	End of record

