#	Name: ASD03090359
#	Creating user name:	WinNT
#	Creation time:	15. 06. 2019 20:28

#	Modifying user name:	WinNT
#	Modification time:	15. 06. 2019 20:28

#	Program:	/corina/corina34_cracker 3.40 0067  02.08.2006

@<TRIPOS>MOLECULE
ASD03090359
  32   34    0    0    0
SMALL
NO_CHARGES


@<TRIPOS>ATOM
   1 C1            -0.0168     1.3893     0.0097 C.ar    
   2 C2             0.0021    -0.0041     0.0020 C.ar    
   3 C3             1.2217    -0.6607    -0.0131 C.ar    
   4 C4             2.3825     0.0996    -0.0201 C.ar    
   5 C5             2.2882     1.4836    -0.0118 C.ar    
   6 N6             1.1165     2.0801     0.0026 N.ar    
   7 C7            -1.3131     2.1057     0.0197 C.2     
   8 O8            -2.3540     1.4785     0.0212 O.2     
   9 N9            -1.3383     3.4532     0.0271 N.am    
  10 C10           -2.6204     4.1618     0.0370 C.3     
  11 N11           -1.6997     9.7132    -0.2104 N.pl3   
  12 C12           -1.6783     9.8869    -1.5675 C.2     
  13 C13           -1.8764     8.7103    -2.1825 C.2     
  14 C14           -2.0380     7.7006    -1.1336 C.ar    
  15 C15           -2.2670     6.3232    -1.1393 C.ar    
  16 C16           -2.3728     5.6483     0.0439 C.ar    
  17 C17           -2.2544     6.3211     1.2526 C.ar    
  18 C18           -2.0289     7.6796     1.2813 C.ar    
  19 C19           -1.9177     8.3870     0.0884 C.ar    
  20 Cl20           3.9369    -0.6733    -0.0385 Cl      
  21 H21           -0.9213    -0.5642     0.0082 H       
  22 H22            1.2680    -1.7397    -0.0190 H       
  23 H23            3.1892     2.0791    -0.0172 H       
  24 H24           -0.5074     3.9538     0.0259 H       
  25 H25           -3.1912     3.8927    -0.8518 H       
  26 H26           -3.1828     3.8830     0.9282 H       
  27 H27           -1.5757    10.4187     0.4437 H       
  28 H28           -1.5250    10.8308    -2.0694 H       
  29 H29           -1.9103     8.5403    -3.2485 H       
  30 H30           -2.3611     5.7933    -2.0757 H       
  31 H31           -2.3404     5.7738     2.1796 H       
  32 H32           -1.9386     8.1940     2.2266 H       
@<TRIPOS>BOND
   1    1    2 ar
   2    1    6 ar
   3    1    7 1
   4    2    3 ar
   5    2   21 1
   6    3    4 ar
   7    3   22 1
   8    4    5 ar
   9    4   20 1
  10    5    6 ar
  11    5   23 1
  12    7    8 2
  13    7    9 am
  14    9   10 1
  15    9   24 1
  16   10   16 1
  17   10   25 1
  18   10   26 1
  19   11   12 1
  20   11   19 1
  21   11   27 1
  22   12   13 2
  23   12   28 1
  24   13   14 1
  25   13   29 1
  26   14   15 ar
  27   14   19 ar
  28   15   16 ar
  29   15   30 1
  30   16   17 ar
  31   17   18 ar
  32   17   31 1
  33   18   19 ar
  34   18   32 1

#	End of record

