#	Name: ASD03091878
#	Creating user name:	WinNT
#	Creation time:	15. 06. 2019 20:31

#	Modifying user name:	WinNT
#	Modification time:	15. 06. 2019 20:31

#	Program:	/corina/corina34_cracker 3.40 0067  02.08.2006

@<TRIPOS>MOLECULE
ASD03091878
  63   68    0    0    0
SMALL
NO_CHARGES


@<TRIPOS>ATOM
   1 C1            -0.0168     1.3911     0.0097 C.ar    
   2 C2            -1.2517     2.0643     0.0309 C.ar    
   3 C3            -2.4517     1.3091     0.0435 C.ar    
   4 C4            -2.3943    -0.0986     0.0333 C.ar    
   5 C5            -1.1956    -0.7355     0.0137 C.ar    
   6 C6             0.0021    -0.0041     0.0020 C.ar    
   7 O7             1.1579     2.0618     0.0021 O.3     
   8 C8             2.2591     1.4607     0.6837 C.3     
   9 N9             2.4078     0.0584     0.2917 N.am    
  10 C10            1.3149    -0.6791    -0.0130 C.2     
  11 C11           -3.6698    -0.9012     0.0448 C.3     
  12 C12           -4.1795    -1.0545    -1.3650 C.ar    
  13 C13           -5.0429    -0.1168    -1.9009 C.ar    
  14 C14           -3.7824    -2.1350    -2.1398 C.ar    
  15 C15           -4.2731    -2.2388    -3.4300 C.ar    
  16 C16           -5.1440    -1.2602    -3.9037 C.ar    
  17 N17           -5.4954    -0.2396    -3.1321 N.ar    
  18 O18            1.4110    -1.8593    -0.2902 O.2     
  19 C19            3.7404    -0.5470     0.2286 C.3     
  20 C20            4.0105    -1.0385    -1.1949 C.3     
  21 O21            3.9454     0.0652    -2.1002 O.3     
  22 C22           -5.6786    -1.3571    -5.2841 C.2     
  23 C23            3.8101    -1.7287     1.1980 C.3     
  24 C24            5.2018    -2.3609     1.1322 C.3     
  25 C25            5.4719    -2.8523    -0.2913 C.3     
  26 C26            5.4022    -1.6707    -1.2607 C.3     
  27 C27           -6.5586    -0.4442    -5.8981 C.2     
  28 C28           -6.8052    -0.8855    -7.1505 C.2     
  29 N29           -6.1140    -2.0313    -7.3327 N.pl3   
  30 N30           -5.4101    -2.3083    -6.1538 N.2     
  31 C31           -6.0990    -2.8413    -8.5533 C.3     
  32 C32           -3.6842     1.9812     0.0664 C.ar    
  33 C33           -3.7119     3.3431     0.0755 C.ar    
  34 C34           -2.5330     4.0839     0.0617 C.ar    
  35 C35           -1.3191     3.4663     0.0403 C.ar    
  36 H36           -1.1634    -1.8150     0.0070 H       
  37 H37            3.1727     2.0013     0.4364 H       
  38 H38            2.0896     1.5167     1.7590 H       
  39 H39           -3.4756    -1.8859     0.4701 H       
  40 H40           -4.4177    -0.3862     0.6476 H       
  41 H41           -5.3506     0.7275    -1.3019 H       
  42 H42           -3.1054    -2.8782    -1.7451 H       
  43 H43           -3.9845    -3.0667    -4.0606 H       
  44 H44            4.4898     0.1946     0.5053 H       
  45 H45            3.2611    -1.7801    -1.4715 H       
  46 H46            4.1071    -0.1732    -3.0233 H       
  47 H47            3.6177    -1.3785     2.2121 H       
  48 H48            3.0607    -2.4703     0.9214 H       
  49 H49            5.9512    -1.6193     1.4089 H       
  50 H50            5.2515    -3.2027     1.8228 H       
  51 H51            6.4634    -3.3027    -0.3382 H       
  52 H52            4.7225    -3.5939    -0.5680 H       
  53 H53            5.5946    -2.0208    -2.2748 H       
  54 H54            6.1516    -0.9291    -0.9840 H       
  55 H55           -6.9640     0.4496    -5.4474 H       
  56 H56           -7.4434    -0.4064    -7.8783 H       
  57 H57           -5.2928    -2.5028    -9.2041 H       
  58 H58           -5.9406    -3.8879    -8.2930 H       
  59 H59           -7.0524    -2.7360    -9.0711 H       
  60 H60           -4.6071     1.4204     0.0764 H       
  61 H61           -4.6622     3.8558     0.0933 H       
  62 H62           -2.5817     5.1628     0.0687 H       
  63 H63           -0.4123     4.0529     0.0300 H       
@<TRIPOS>BOND
   1    1    6 ar
   2    1    7 1
   3    1    2 ar
   4    2   35 ar
   5    2    3 ar
   6    3    4 ar
   7    3   32 ar
   8    4    5 ar
   9    4   11 1
  10    5    6 ar
  11    5   36 1
  12    6   10 1
  13    7    8 1
  14    8    9 1
  15    8   37 1
  16    8   38 1
  17    9   10 am
  18    9   19 1
  19   10   18 2
  20   11   12 1
  21   11   39 1
  22   11   40 1
  23   12   14 ar
  24   12   13 ar
  25   13   17 ar
  26   13   41 1
  27   14   15 ar
  28   14   42 1
  29   15   16 ar
  30   15   43 1
  31   16   22 1
  32   16   17 ar
  33   19   23 1
  34   19   20 1
  35   19   44 1
  36   20   21 1
  37   20   26 1
  38   20   45 1
  39   21   46 1
  40   22   30 2
  41   22   27 1
  42   23   24 1
  43   23   47 1
  44   23   48 1
  45   24   25 1
  46   24   49 1
  47   24   50 1
  48   25   26 1
  49   25   51 1
  50   25   52 1
  51   26   53 1
  52   26   54 1
  53   27   28 2
  54   27   55 1
  55   28   29 1
  56   28   56 1
  57   29   31 1
  58   29   30 1
  59   31   57 1
  60   31   58 1
  61   31   59 1
  62   32   33 ar
  63   32   60 1
  64   33   34 ar
  65   33   61 1
  66   34   35 ar
  67   34   62 1
  68   35   63 1

#	End of record

