#	Name: ASD03950091
#	Creating user name:	WinNT
#	Creation time:	15. 06. 2019 20:48

#	Modifying user name:	WinNT
#	Modification time:	15. 06. 2019 20:48

#	Program:	/corina/corina34_cracker 3.40 0067  02.08.2006

@<TRIPOS>MOLECULE
ASD03950091
  43   46    0    0    0
SMALL
NO_CHARGES


@<TRIPOS>ATOM
   1 N1            -0.0169     1.3942     0.0097 N.pl3   
   2 N2             0.0021    -0.0041     0.0020 N.2     
   3 C3             1.2311    -0.4341    -0.0120 C.2     
   4 C4             2.1093     0.7334    -0.0141 C.ar    
   5 C5             3.4967     0.8990    -0.0264 C.ar    
   6 C6             4.0412     2.1755    -0.0248 C.ar    
   7 C7             3.2112     3.2979    -0.0104 C.ar    
   8 C8             1.8299     3.1501     0.0024 C.ar    
   9 C9             1.2663     1.8606    -0.0000 C.ar    
  10 C10            0.9576     4.3398     0.0176 C.2     
  11 O11           -0.2510     4.2074     0.0288 O.2     
  12 N12            1.5005     5.5734     0.0190 N.am    
  13 C13            6.3581     1.2392    -0.0519 C.ar    
  14 C14            5.5152     2.3486    -0.0379 C.ar    
  15 C15            6.0800     3.6264    -0.0369 C.ar    
  16 C16            7.4603     3.7344    -0.0499 C.ar    
  17 C17            8.2285     2.5848    -0.0634 C.ar    
  18 N18            7.6664     1.3914    -0.0640 N.ar    
  19 N19            0.9738    -4.6789    -0.0264 N.3     
  20 C20            1.5341    -4.0590     1.1812 C.3     
  21 C21            1.1385    -2.5814     1.2282 C.3     
  22 C22            1.6687    -1.8761    -0.0232 C.3     
  23 C23            1.1086    -2.5712    -1.2672 C.3     
  24 C24            1.5051    -4.0491    -1.2419 C.3     
  25 H25           -0.8151     1.9454     0.0166 H       
  26 H26            4.1445     0.0349    -0.0369 H       
  27 H27            3.6455     4.2867    -0.0089 H       
  28 H28            2.4647     5.6790     0.0101 H       
  29 H29            0.9270     6.3556     0.0290 H       
  30 H30            5.9349     0.2456    -0.0483 H       
  31 H31            5.4557     4.5077    -0.0266 H       
  32 H32            7.9318     4.7060    -0.0499 H       
  33 H33            9.3054     2.6652    -0.0739 H       
  34 H34            1.1402    -5.6741    -0.0324 H       
  35 H35            1.1458    -4.5672     2.0639 H       
  36 H36            2.6206    -4.1437     1.1622 H       
  37 H37            0.0523    -2.4964     1.2612 H       
  38 H38            1.5675    -2.1179     2.1165 H       
  39 H39            2.7575    -1.9263    -0.0358 H       
  40 H40            0.0220    -2.4860    -1.2735 H       
  41 H41            1.5163    -2.1003    -2.1618 H       
  42 H42            2.5918    -4.1338    -1.2496 H       
  43 H43            1.0957    -4.5500    -2.1191 H       
@<TRIPOS>BOND
   1    1    2 1
   2    1    9 1
   3    1   25 1
   4    2    3 2
   5    3    4 1
   6    3   22 1
   7    4    5 ar
   8    4    9 ar
   9    5    6 ar
  10    5   26 1
  11    6    7 ar
  12    6   14 1
  13    7    8 ar
  14    7   27 1
  15    8    9 ar
  16    8   10 1
  17   10   11 2
  18   10   12 am
  19   12   28 1
  20   12   29 1
  21   13   14 ar
  22   13   18 ar
  23   13   30 1
  24   14   15 ar
  25   15   16 ar
  26   15   31 1
  27   16   17 ar
  28   16   32 1
  29   17   18 ar
  30   17   33 1
  31   19   20 1
  32   19   24 1
  33   19   34 1
  34   20   21 1
  35   20   35 1
  36   20   36 1
  37   21   22 1
  38   21   37 1
  39   21   38 1
  40   22   23 1
  41   22   39 1
  42   23   24 1
  43   23   40 1
  44   23   41 1
  45   24   42 1
  46   24   43 1

#	End of record

