#	Name: ASD01900750
#	Creating user name:	WinNT
#	Creation time:	15. 06. 2019 19:52

#	Modifying user name:	WinNT
#	Modification time:	15. 06. 2019 19:52

#	Program:	/corina/corina34_cracker 3.40 0067  02.08.2006

@<TRIPOS>MOLECULE
ASD01900750
  55   59    0    0    0
SMALL
NO_CHARGES


@<TRIPOS>ATOM
   1 C1            -1.3320     2.1754    -0.5590 C.ar    
   2 C2            -1.3836     0.7949    -0.4112 C.ar    
   3 C3            -2.5777     0.1170    -0.5492 C.ar    
   4 C4            -3.7438     0.8134    -0.8383 C.ar    
   5 C5            -3.6886     2.2054    -0.9912 C.ar    
   6 O6            -4.9198     0.1606    -0.9639 O.3     
   7 C7            -5.9943     0.7409    -1.5250 C.2     
   8 C8            -6.0869     2.0780    -1.7214 C.2     
   9 C9            -4.9488     2.9223    -1.3133 C.2     
  10 C10           -7.1213    -0.1151    -1.9455 C.2     
  11 N11           -8.2264     0.4674    -2.5209 N.2     
  12 C12           -9.4138    -0.0807    -2.4175 C.2     
  13 C13           -9.4437    -1.3598    -1.6696 C.3     
  14 C14           -8.2522    -2.2291    -2.1978 C.3     
  15 C15           -7.0371    -1.4608    -1.7587 C.2     
  16 C16           -2.4870     2.8853    -0.8445 C.ar    
  17 C17          -10.6343    -2.2193    -1.5758 C.2     
  18 C18          -10.3945    -3.5031    -1.2864 C.2     
  19 S19           -8.6202    -3.7025    -1.1765 S.3     
  20 O20           -0.1488     2.8304    -0.4178 O.3     
  21 C21            1.0006     2.0362    -0.1178 C.3     
  22 C22            2.2284     2.9411     0.0030 C.3     
  23 N23            2.0575     3.8483     1.1457 N.3     
  24 C24            3.2527     4.6786     1.3419 C.3     
  25 C25            1.7237     3.1015     2.3652 C.3     
  26 C26            1.4110     4.0833     3.4968 C.3     
  27 C27            2.9857     5.7074     2.4429 C.3     
  28 C28            2.6295     4.9778     3.7411 C.3     
  29 F29            0.3147     4.8750     3.1386 F       
  30 F30            1.1127     3.3715     4.6636 F       
  31 N31           -5.0437     4.2279    -1.2395 N.2     
  32 O32           -3.9632     4.9888    -0.7309 O.3     
  33 H33           -0.4805     0.2469    -0.1865 H       
  34 H34           -2.6053    -0.9563    -0.4327 H       
  35 H35           -6.9701     2.5138    -2.1645 H       
  36 H36          -10.3002     0.3656    -2.8436 H       
  37 H37           -9.1821    -1.1138    -0.6405 H       
  38 H38           -8.2757    -2.4120    -3.2720 H       
  39 H39           -6.1704    -1.9371    -1.3247 H       
  40 H40           -2.4515     3.9585    -0.9599 H       
  41 H41          -11.6336    -1.8395    -1.7297 H       
  42 H42          -11.1352    -4.2764    -1.1456 H       
  43 H43            0.8430     1.5100     0.8237 H       
  44 H44            1.1603     1.3119    -0.9165 H       
  45 H45            3.1174     2.3290     0.1549 H       
  46 H46            2.3408     3.5248    -0.9106 H       
  47 H47            4.0911     4.0454     1.6321 H       
  48 H48            3.4926     5.1951     0.4125 H       
  49 H49            0.8531     2.4726     2.1792 H       
  50 H50            2.5693     2.4757     2.6507 H       
  51 H51            3.8782     6.3133     2.5990 H       
  52 H52            2.1562     6.3499     2.1472 H       
  53 H53            2.3963     5.7072     4.5167 H       
  54 H54            3.4735     4.3651     4.0579 H       
  55 H55           -4.1261     5.9418    -0.7154 H       
@<TRIPOS>BOND
   1    1    2 ar
   2    1   20 1
   3    1   16 ar
   4    2    3 ar
   5    2   33 1
   6    3    4 ar
   7    3   34 1
   8    4    5 ar
   9    4    6 1
  10    5   16 ar
  11    5    9 1
  12    6    7 1
  13    7    8 2
  14    7   10 1
  15    8    9 1
  16    8   35 1
  17    9   31 2
  18   10   11 1
  19   10   15 2
  20   11   12 2
  21   12   13 1
  22   12   36 1
  23   13   14 1
  24   13   17 1
  25   13   37 1
  26   14   15 1
  27   14   19 1
  28   14   38 1
  29   15   39 1
  30   16   40 1
  31   17   18 2
  32   17   41 1
  33   18   19 1
  34   18   42 1
  35   20   21 1
  36   21   22 1
  37   21   43 1
  38   21   44 1
  39   22   23 1
  40   22   45 1
  41   22   46 1
  42   23   24 1
  43   23   25 1
  44   24   27 1
  45   24   47 1
  46   24   48 1
  47   25   26 1
  48   25   49 1
  49   25   50 1
  50   26   28 1
  51   26   29 1
  52   26   30 1
  53   27   28 1
  54   27   51 1
  55   27   52 1
  56   28   53 1
  57   28   54 1
  58   31   32 1
  59   32   55 1

#	End of record

