#	Name: ASD05430056
#	Creating user name:	WinNT
#	Creation time:	15. 06. 2019 20:59

#	Modifying user name:	WinNT
#	Modification time:	15. 06. 2019 20:59

#	Program:	/corina/corina34_cracker 3.40 0067  02.08.2006

@<TRIPOS>MOLECULE
ASD05430056
  59   64    0    0    0
SMALL
NO_CHARGES


@<TRIPOS>ATOM
   1 C1             0.0192     1.4558     0.4862 C.ar    
   2 C2             0.0126     0.0817     0.2498 C.ar    
   3 C3             1.2070    -0.5974     0.0476 C.ar    
   4 C4             2.4047     0.0835     0.0800 C.ar    
   5 C5             2.4192     1.4621     0.3165 C.ar    
   6 C6             1.2165     2.1456     0.5197 C.ar    
   7 O7             4.9238     0.1396     0.3892 O.3     
   8 C8             4.8629     1.5121     0.3094 C.2     
   9 C9             3.6971     2.1911     0.3515 C.2     
  10 C10            6.0065    -0.3749     1.1763 C.3     
  11 C11            7.4111     0.0680     0.7385 C.3     
  12 N12            7.3606     1.5043     0.4675 N.pl3   
  13 C13            6.1763     2.1883     0.1740 C.2     
  14 C14           -1.6194    -1.4817    -0.7616 C.2     
  15 N15           -1.2031    -0.6165     0.2167 N.pl3   
  16 C16           -2.8379    -1.9252    -0.3975 C.2     
  17 N17           -3.1612    -1.3497     0.7700 N.2     
  18 C18           -2.1900    -0.5636     1.1482 C.2     
  19 C19           -3.6907    -2.8992    -1.1689 C.3     
  20 C20            8.4286     2.5011     0.4568 C.3     
  21 O21            7.8388     3.6071    -0.2596 O.3     
  22 N22            6.4348     3.3888    -0.2173 N.2     
  23 C23            8.7898     2.9092     1.8618 C.ar    
  24 C24            9.6563     1.9697    -0.2857 C.3     
  25 C25            8.5389     2.0511     2.9163 C.ar    
  26 C26            9.3771     4.1388     2.0945 C.ar    
  27 C27            9.7097     4.5137     3.3824 C.ar    
  28 C28            9.4540     3.6574     4.4400 C.ar    
  29 C29            8.8701     2.4241     4.2051 C.ar    
  30 F30            9.7786     4.0228     5.6994 F       
  31 C31           -1.0711     3.5250     0.9151 C.3     
  32 O32           -1.1525     2.1181     0.6781 O.3     
  33 C33            5.7635    -0.5643     2.6732 C.3     
  34 C34            5.8579    -1.7824     1.7515 C.3     
  35 H35            1.1973    -1.6618    -0.1352 H       
  36 H36            3.3321    -0.4473    -0.0769 H       
  37 H37            1.2230     3.2101     0.7023 H       
  38 H38            3.7021     3.2695     0.4109 H       
  39 H39            8.1269    -0.1327     1.5356 H       
  40 H40            7.7027    -0.4683    -0.1646 H       
  41 H41           -1.0765    -1.7523    -1.6552 H       
  42 H42           -2.1738     0.0290     2.0509 H       
  43 H43           -3.4608    -3.9157    -0.8494 H       
  44 H44           -4.7435    -2.6886    -0.9807 H       
  45 H45           -3.4847    -2.7979    -2.2344 H       
  46 H46            9.3846     1.7332    -1.3144 H       
  47 H47           10.4396     2.7277    -0.2818 H       
  48 H48           10.0194     1.0696     0.2103 H       
  49 H49            8.0835     1.0892     2.7329 H       
  50 H50            9.5765     4.8066     1.2694 H       
  51 H51           10.1691     5.4741     3.5639 H       
  52 H52            8.6699     1.7554     5.0293 H       
  53 H53           -0.4805     3.7087     1.8126 H       
  54 H54           -0.5967     4.0103     0.0622 H       
  55 H55           -2.0743     3.9290     1.0514 H       
  56 H56            6.5997    -0.3767     3.3467 H       
  57 H57            4.7792    -0.3013     3.0607 H       
  58 H58            4.9357    -2.3208     1.5327 H       
  59 H59            6.7562    -2.3961     1.8188 H       
@<TRIPOS>BOND
   1    1    2 ar
   2    1    6 ar
   3    1   32 1
   4    2    3 ar
   5    2   15 1
   6    3    4 ar
   7    3   35 1
   8    4    5 ar
   9    4   36 1
  10    5    6 ar
  11    5    9 1
  12    6   37 1
  13    7    8 1
  14    7   10 1
  15    8    9 2
  16    8   13 1
  17    9   38 1
  18   10   11 1
  19   10   33 1
  20   10   34 1
  21   11   12 1
  22   11   39 1
  23   11   40 1
  24   12   13 1
  25   12   20 1
  26   13   22 2
  27   14   15 1
  28   14   16 2
  29   14   41 1
  30   15   18 1
  31   16   17 1
  32   16   19 1
  33   17   18 2
  34   18   42 1
  35   19   43 1
  36   19   44 1
  37   19   45 1
  38   20   21 1
  39   20   23 1
  40   20   24 1
  41   21   22 1
  42   23   25 ar
  43   23   26 ar
  44   24   46 1
  45   24   47 1
  46   24   48 1
  47   25   29 ar
  48   25   49 1
  49   26   27 ar
  50   26   50 1
  51   27   28 ar
  52   27   51 1
  53   28   29 ar
  54   28   30 1
  55   29   52 1
  56   31   32 1
  57   31   53 1
  58   31   54 1
  59   31   55 1
  60   33   34 1
  61   33   56 1
  62   33   57 1
  63   34   58 1
  64   34   59 1

#	End of record

