#	Name: ASD03330783
#	Creating user name:	WinNT
#	Creation time:	15. 06. 2019 20:37

#	Modifying user name:	WinNT
#	Modification time:	15. 06. 2019 20:37

#	Program:	/corina/corina34_cracker 3.40 0067  02.08.2006

@<TRIPOS>MOLECULE
ASD03330783
  57   59    0    0    0
SMALL
NO_CHARGES


@<TRIPOS>ATOM
   1 C1            -0.7119     1.9005    -0.2692 C.2     
   2 N2            -0.9232     0.5604    -0.1780 N.pl3   
   3 C3             0.6294     2.1033    -0.1500 C.2     
   4 N4             1.2179     0.8955    -0.0063 N.2     
   5 C5             0.2942    -0.0368    -0.0278 C.2     
   6 C6             0.5331    -1.4914     0.0906 C.ar    
   7 C7             1.3162     3.4067    -0.1739 C.2     
   8 O8             0.6737     4.4303    -0.3104 O.2     
   9 C9             3.3394     4.7606    -0.0683 C.3     
  10 N10            2.6565     3.4647    -0.0446 N.am    
  11 C11            4.7868     4.5660    -0.5246 C.3     
  12 C12            3.3248     5.3615     1.3136 C.2     
  13 O13            3.2461     4.6421     2.2869 O.2     
  14 C14           -2.2316    -0.0984    -0.2212 C.3     
  15 C15           -3.0409     0.4681    -1.3919 C.3     
  16 C16           -3.8065     1.7068    -0.9381 C.3     
  17 N17           -3.0487     2.4562     0.0660 N.3     
  18 C18           -1.7752     2.9466    -0.4817 C.3     
  19 C19           -0.2331    -2.2581     0.9693 C.ar    
  20 C20           -0.0064    -3.6143     1.0754 C.ar    
  21 C21           -3.8477     3.5616     0.6116 C.3     
  22 N22            3.3991     6.6983     1.4679 N.am    
  23 C23            0.9799    -4.2172     0.3121 C.ar    
  24 C24            4.8024     3.8871    -1.8956 C.3     
  25 C25            5.4782     5.9274    -0.6217 C.3     
  26 C26            5.5270     3.6891     0.4873 C.3     
  27 F27            2.2661    -1.3706    -1.5382 F       
  28 C28            1.5233    -2.1048    -0.6813 C.ar    
  29 C29            1.7446    -3.4640    -0.5614 C.ar    
  30 Cl30           1.2582    -5.9250     0.4523 Cl      
  31 H31            2.8269     5.4287    -0.7605 H       
  32 H32            3.1690     2.6483     0.0643 H       
  33 H33           -2.0950    -1.1711    -0.3580 H       
  34 H34           -2.7633     0.0860     0.7123 H       
  35 H35           -2.3647     0.7369    -2.2035 H       
  36 H36           -3.7460    -0.2853    -1.7433 H       
  37 H37           -3.9909     2.3488    -1.7995 H       
  38 H38           -4.7612     1.4005    -0.5106 H       
  39 H39           -1.4890     3.8662     0.0287 H       
  40 H40           -1.8878     3.1404    -1.5485 H       
  41 H41           -1.0024    -1.7902     1.5657 H       
  42 H42           -0.5991    -4.2078     1.7557 H       
  43 H43           -4.7481     3.1630     1.0789 H       
  44 H44           -3.2611     4.1015     1.3549 H       
  45 H45           -4.1266     4.2405    -0.1942 H       
  46 H46            3.3890     7.2777     0.6900 H       
  47 H47            3.4626     7.0811     2.3569 H       
  48 H48            4.2751     4.5118    -2.6165 H       
  49 H49            5.8336     3.7485    -2.2207 H       
  50 H50            4.3098     2.9172    -1.8264 H       
  51 H51            5.5513     6.3695     0.3719 H       
  52 H52            6.4779     5.7984    -1.0365 H       
  53 H53            4.8980     6.5842    -1.2698 H       
  54 H54            5.0344     2.7192     0.5565 H       
  55 H55            6.5581     3.5505     0.1622 H       
  56 H56            5.5158     4.1728     1.4640 H       
  57 H57            2.5096    -3.9404    -1.1566 H       
@<TRIPOS>BOND
   1    1    2 1
   2    1    3 2
   3    1   18 1
   4    2   14 1
   5    2    5 1
   6    3    4 1
   7    3    7 1
   8    4    5 2
   9    5    6 1
  10    6   28 ar
  11    6   19 ar
  12    7    8 2
  13    7   10 am
  14    9   10 1
  15    9   11 1
  16    9   12 1
  17    9   31 1
  18   10   32 1
  19   11   24 1
  20   11   25 1
  21   11   26 1
  22   12   13 2
  23   12   22 am
  24   14   15 1
  25   14   33 1
  26   14   34 1
  27   15   16 1
  28   15   35 1
  29   15   36 1
  30   16   17 1
  31   16   37 1
  32   16   38 1
  33   17   18 1
  34   17   21 1
  35   18   39 1
  36   18   40 1
  37   19   20 ar
  38   19   41 1
  39   20   23 ar
  40   20   42 1
  41   21   43 1
  42   21   44 1
  43   21   45 1
  44   22   46 1
  45   22   47 1
  46   23   30 1
  47   23   29 ar
  48   24   48 1
  49   24   49 1
  50   24   50 1
  51   25   51 1
  52   25   52 1
  53   25   53 1
  54   26   54 1
  55   26   55 1
  56   26   56 1
  57   27   28 1
  58   28   29 ar
  59   29   57 1

#	End of record

