#	Name: ASD01880144
#	Creating user name:	WinNT
#	Creation time:	15. 06. 2019 19:40

#	Modifying user name:	WinNT
#	Modification time:	15. 06. 2019 19:40

#	Program:	/corina/corina34_cracker 3.40 0067  02.08.2006

@<TRIPOS>MOLECULE
ASD01880144
  43   46    0    0    0
SMALL
NO_CHARGES


@<TRIPOS>ATOM
   1 C1            -0.0168     1.3866     0.0097 C.ar    
   2 C2             0.0021    -0.0041     0.0020 C.ar    
   3 C3            -1.1908    -0.7171     0.0091 C.ar    
   4 C4            -2.3920    -0.0608     0.0240 C.ar    
   5 C5            -2.4274     1.3358     0.0323 C.ar    
   6 C6            -1.2195     2.0577     0.0305 C.ar    
   7 C7            -3.8022    -0.6015     0.0346 C.3     
   8 C8            -4.7307     0.6205     0.0505 C.3     
   9 C9            -3.8138     1.8193     0.0485 C.2     
  10 Cl10          -1.2453     3.7935     0.0407 Cl      
  11 Cl11           1.4742     2.2757     0.0002 Cl      
  12 O12           -4.1620     2.9813     0.0585 O.2     
  13 C13            2.5330    -2.6494    -0.0363 C.ar    
  14 C14            1.1324    -2.0935    -0.0200 C.3     
  15 O15            1.1867    -0.6655    -0.0128 O.3     
  16 C16            3.1847    -2.9099     1.1559 C.ar    
  17 C17            4.4673    -3.4185     1.1476 C.ar    
  18 C18            5.1067    -3.6703    -0.0662 C.ar    
  19 C19            4.4442    -3.4060    -1.2649 C.ar    
  20 C20            3.1597    -2.9023    -1.2433 C.ar    
  21 C21            6.4827    -4.2154    -0.0822 C.2     
  22 N22            7.2203    -4.5093     0.9677 N.2     
  23 N23            8.3646    -4.9620     0.6008 N.2     
  24 N24            8.4446    -4.9916    -0.6854 N.2     
  25 N25            7.2197    -4.5119    -1.1812 N.pl3   
  26 C26           -5.6170     0.6290    -1.1966 C.3     
  27 C27           -5.5927     0.6147     1.3145 C.3     
  28 H28           -1.1699    -1.7969     0.0024 H       
  29 H29           -3.9818    -1.1967    -0.8607 H       
  30 H30           -3.9646    -1.2069     0.9263 H       
  31 H31            0.5967    -2.4322    -0.9067 H       
  32 H32            0.6136    -2.4418     0.8731 H       
  33 H33            2.6885    -2.7145     2.0951 H       
  34 H34            4.9753    -3.6208     2.0790 H       
  35 H35            4.9341    -3.5989    -2.2078 H       
  36 H36            2.6456    -2.6975    -2.1708 H       
  37 H37            6.9598    -4.4090    -2.1101 H       
  38 H38           -6.2218    -0.2776    -1.2188 H       
  39 H39           -6.2704     1.5011    -1.1721 H       
  40 H40           -4.9903     0.6695    -2.0875 H       
  41 H41           -4.9489     0.6451     2.1935 H       
  42 H42           -6.2464     1.4870     1.3126 H       
  43 H43           -6.1971    -0.2921     1.3380 H       
@<TRIPOS>BOND
   1    1    2 ar
   2    1   11 1
   3    1    6 ar
   4    2    3 ar
   5    2   15 1
   6    3    4 ar
   7    3   28 1
   8    4    5 ar
   9    4    7 1
  10    5    6 ar
  11    5    9 1
  12    6   10 1
  13    7    8 1
  14    7   29 1
  15    7   30 1
  16    8    9 1
  17    8   26 1
  18    8   27 1
  19    9   12 2
  20   13   14 1
  21   13   16 ar
  22   13   20 ar
  23   14   15 1
  24   14   31 1
  25   14   32 1
  26   16   17 ar
  27   16   33 1
  28   17   18 ar
  29   17   34 1
  30   18   19 ar
  31   18   21 1
  32   19   20 ar
  33   19   35 1
  34   20   36 1
  35   21   22 2
  36   21   25 1
  37   22   23 1
  38   23   24 2
  39   24   25 1
  40   25   37 1
  41   26   38 1
  42   26   39 1
  43   26   40 1
  44   27   41 1
  45   27   42 1
  46   27   43 1

#	End of record

