#	Name: ASD01150003
#	Creating user name:	WinNT
#	Creation time:	15. 06. 2019 19:03

#	Modifying user name:	WinNT
#	Modification time:	15. 06. 2019 19:03

#	Program:	/corina/corina34_cracker 3.40 0067  02.08.2006

@<TRIPOS>MOLECULE
ASD01150003
  21   20    0    0    0
SMALL
NO_CHARGES


@<TRIPOS>ATOM
   1 P1            -0.0180     1.4758     0.0102 P.3     
   2 O2             0.0021    -0.0041     0.0020 O.2     
   3 O3             1.4924     2.0330    -0.0013 O.3     
   4 C4            -0.8997     2.0797    -1.4667 C.3     
   5 C5            -0.8713     2.0637     1.5100 C.3     
   6 C6            -0.2062     1.4558     2.7466 C.3     
   7 C7            -0.8404     2.0447     4.0082 C.3     
   8 O8            -0.3899     0.0387     2.7380 O.3     
   9 N9            -0.1233     1.5527     5.1922 N.3     
  10 H10            2.0070     1.7589    -0.7727 H       
  11 H11           -1.9223     1.7024    -1.4590 H       
  12 H12           -0.9145     3.1696    -1.4608 H       
  13 H13           -0.3895     1.7281    -2.3635 H       
  14 H14           -0.8087     3.1507     1.5612 H       
  15 H15           -1.9179     1.7613     1.4747 H       
  16 H16            0.8596     1.6841     2.7351 H       
  17 H17           -0.7789     3.1323     3.9721 H       
  18 H18           -1.8859     1.7416     4.0648 H       
  19 H19           -1.3164    -0.2379     2.7474 H       
  20 H20            0.8613     1.7651     5.1326 H       
  21 H21           -0.5235     1.9277     6.0391 H       
@<TRIPOS>BOND
   1    1    2 2
   2    1    3 1
   3    1    4 1
   4    1    5 1
   5    3   10 1
   6    4   11 1
   7    4   12 1
   8    4   13 1
   9    5    6 1
  10    5   14 1
  11    5   15 1
  12    6    7 1
  13    6    8 1
  14    6   16 1
  15    7    9 1
  16    7   17 1
  17    7   18 1
  18    8   19 1
  19    9   20 1
  20    9   21 1

#	End of record

