#	Name: ASD01870725
#	Creating user name:	WinNT
#	Creation time:	15. 06. 2019 19:39

#	Modifying user name:	WinNT
#	Modification time:	15. 06. 2019 19:39

#	Program:	/corina/corina34_cracker 3.40 0067  02.08.2006

@<TRIPOS>MOLECULE
ASD01870725
  41   44    0    0    0
SMALL
NO_CHARGES


@<TRIPOS>ATOM
   1 C1            -0.0167     1.3811     0.0096 C.ar    
   2 C2             0.0021    -0.0041     0.0020 C.ar    
   3 C3             1.2077    -0.6883    -0.0127 C.ar    
   4 C4             2.4028     0.0026    -0.0199 C.ar    
   5 C5             1.1812     2.0969     0.0020 C.ar    
   6 C6             1.4329     3.5493     0.0069 C.2     
   7 C7             2.4058     1.4002    -0.0129 C.ar    
   8 C8             3.5248     2.3573    -0.0185 C.2     
   9 C9             2.9303     3.7453    -0.0066 C.3     
  10 C10            3.3450     4.5004    -1.2431 C.ar    
  11 C11            3.9943     5.7151    -1.1259 C.ar    
  12 C12            4.3747     6.4078    -2.2602 C.ar    
  13 C13            4.1062     5.8854    -3.5116 C.ar    
  14 C14            3.4577     4.6703    -3.6287 C.ar    
  15 C15            3.0811     3.9756    -2.4944 C.ar    
  16 O16            0.5937     4.4241     0.0192 O.2     
  17 O17            4.7056     2.0817    -0.0306 O.2     
  18 C18            4.5199     6.6410    -4.7481 C.3     
  19 C19            5.9111     6.2236    -5.1498 C.2     
  20 C20            6.5468     6.8234    -6.3373 C.ar    
  21 O21            6.5076     5.3946    -4.4967 O.2     
  22 N22            5.8904     7.7362    -7.0470 N.ar    
  23 C23            7.8363     6.4329    -6.7050 C.ar    
  24 C24            8.4198     7.0076    -7.8256 C.ar    
  25 C25            7.6961     7.9499    -8.5374 C.ar    
  26 C26            6.4214     8.2945    -8.1112 C.ar    
  27 Cl27           8.6967     5.2467    -5.7742 Cl      
  28 F28           -1.1607    -0.6918     0.0094 F       
  29 H29           -0.9596     1.9077     0.0170 H       
  30 H30            1.2120    -1.7682    -0.0182 H       
  31 H31            3.3377    -0.5381    -0.0306 H       
  32 H32            3.2476     4.2824     0.8872 H       
  33 H33            4.2041     6.1232    -0.1483 H       
  34 H34            4.8813     7.3571    -2.1686 H       
  35 H35            3.2476     4.2624    -4.6064 H       
  36 H36            2.5778     3.0245    -2.5859 H       
  37 H37            3.8258     6.4193    -5.5587 H       
  38 H38            4.5072     7.7111    -4.5413 H       
  39 H39            9.4156     6.7267    -8.1352 H       
  40 H40            8.1220     8.4159    -9.4137 H       
  41 H41            5.8572     9.0321    -8.6626 H       
@<TRIPOS>BOND
   1    1    2 ar
   2    1    5 ar
   3    1   29 1
   4    2    3 ar
   5    2   28 1
   6    3    4 ar
   7    3   30 1
   8    4    7 ar
   9    4   31 1
  10    5    7 ar
  11    5    6 1
  12    6    9 1
  13    6   16 2
  14    7    8 1
  15    8    9 1
  16    8   17 2
  17    9   10 1
  18    9   32 1
  19   10   11 ar
  20   10   15 ar
  21   11   12 ar
  22   11   33 1
  23   12   13 ar
  24   12   34 1
  25   13   14 ar
  26   13   18 1
  27   14   15 ar
  28   14   35 1
  29   15   36 1
  30   18   19 1
  31   18   37 1
  32   18   38 1
  33   19   20 1
  34   19   21 2
  35   20   23 ar
  36   20   22 ar
  37   22   26 ar
  38   23   24 ar
  39   23   27 1
  40   24   25 ar
  41   24   39 1
  42   25   26 ar
  43   25   40 1
  44   26   41 1

#	End of record

