#	Name: ASD01883343
#	Creating user name:	WinNT
#	Creation time:	15. 06. 2019 19:46

#	Modifying user name:	WinNT
#	Modification time:	15. 06. 2019 19:46

#	Program:	/corina/corina34_cracker 3.40 0067  02.08.2006

@<TRIPOS>MOLECULE
ASD01883343
  53   55    0    0    0
SMALL
NO_CHARGES


@<TRIPOS>ATOM
   1 N1            -0.0162     1.3418     0.0094 N.am    
   2 C2             0.0021    -0.0041     0.0020 C.2     
   3 C3            -1.2147    -0.7262     0.0102 C.2     
   4 C4            -2.4239    -0.0108     0.0261 C.2     
   5 C5            -2.3777     1.3956     0.0332 C.2     
   6 C6            -1.1861     2.0320     0.0299 C.2     
   7 O7             1.0658    -0.6002    -0.0122 O.2     
   8 C8            -1.2137    -2.1582     0.0021 C.1     
   9 N9            -1.2130    -3.2942    -0.0044 N.1     
  10 N10           -3.6309    -0.6732     0.0341 N.pl3   
  11 C11            1.2510     2.0769     0.0013 C.3     
  12 C12            1.6783     2.3406    -1.4440 C.3     
  13 C13           -4.8833     0.0867     0.0506 C.3     
  14 C14           -6.0033    -0.7630    -0.5530 C.3     
  15 C15           -7.3113     0.0305    -0.5357 C.3     
  16 C16           -7.6681     0.3943     0.9069 C.3     
  17 C17           -6.5481     1.2441     1.5105 C.3     
  18 C18           -5.2401     0.4505     1.4932 C.3     
  19 C19            3.0017     3.1084    -1.4525 C.3     
  20 C20            3.4291     3.3720    -2.8977 C.3     
  21 C21           -8.9565     1.1760     0.9239 C.ar    
  22 C22          -10.0493     0.6922     1.6185 C.ar    
  23 C23          -11.2311     1.4091     1.6340 C.ar    
  24 C24          -11.3199     2.6101     0.9554 C.ar    
  25 C25          -10.2268     3.0944     0.2615 C.ar    
  26 C26           -9.0436     2.3796     0.2496 C.ar    
  27 H27           -3.2946     1.9661     0.0450 H       
  28 H28           -1.1631     3.1117     0.0354 H       
  29 H29           -3.6520    -1.6429     0.0288 H       
  30 H30            1.1236     3.0263     0.5214 H       
  31 H31            2.0167     1.4867     0.5046 H       
  32 H32            1.8057     1.3912    -1.9642 H       
  33 H33            0.9126     2.9308    -1.9474 H       
  34 H34           -4.7630     0.9982    -0.5349 H       
  35 H35           -5.7492    -1.0222    -1.5808 H       
  36 H36           -6.1236    -1.6746     0.0325 H       
  37 H37           -7.1910     0.9420    -1.1212 H       
  38 H38           -8.1093    -0.5748    -0.9658 H       
  39 H39           -7.7884    -0.5172     1.4924 H       
  40 H40           -6.4278     2.1556     0.9250 H       
  41 H41           -6.8023     1.5033     2.5383 H       
  42 H42           -5.3604    -0.4610     2.0787 H       
  43 H43           -4.4421     1.0559     1.9232 H       
  44 H44            2.8743     4.0577    -0.9323 H       
  45 H45            3.7675     2.5181    -0.9491 H       
  46 H46            2.6634     3.9623    -3.4011 H       
  47 H47            4.3719     3.9190    -2.9038 H       
  48 H48            3.5565     2.4227    -3.4179 H       
  49 H49           -9.9800    -0.2462     2.1487 H       
  50 H50          -12.0852     1.0308     2.1761 H       
  51 H51          -12.2434     3.1699     0.9669 H       
  52 H52          -10.2962     4.0326    -0.2690 H       
  53 H53           -8.1896     2.7579    -0.2925 H       
@<TRIPOS>BOND
   1    1    2 am
   2    1   11 1
   3    1    6 1
   4    2    3 1
   5    2    7 2
   6    3    4 2
   7    3    8 1
   8    4    5 1
   9    4   10 1
  10    5    6 2
  11    5   27 1
  12    6   28 1
  13    8    9 3
  14   10   13 1
  15   10   29 1
  16   11   12 1
  17   11   30 1
  18   11   31 1
  19   12   19 1
  20   12   32 1
  21   12   33 1
  22   13   14 1
  23   13   18 1
  24   13   34 1
  25   14   15 1
  26   14   35 1
  27   14   36 1
  28   15   16 1
  29   15   37 1
  30   15   38 1
  31   16   17 1
  32   16   21 1
  33   16   39 1
  34   17   18 1
  35   17   40 1
  36   17   41 1
  37   18   42 1
  38   18   43 1
  39   19   20 1
  40   19   44 1
  41   19   45 1
  42   20   46 1
  43   20   47 1
  44   20   48 1
  45   21   22 ar
  46   21   26 ar
  47   22   23 ar
  48   22   49 1
  49   23   24 ar
  50   23   50 1
  51   24   25 ar
  52   24   51 1
  53   25   26 ar
  54   25   52 1
  55   26   53 1

#	End of record

