#	Name: ASD01810393
#	Creating user name:	WinNT
#	Creation time:	15. 06. 2019 19:24

#	Modifying user name:	WinNT
#	Modification time:	15. 06. 2019 19:24

#	Program:	/corina/corina34_cracker 3.40 0067  02.08.2006

@<TRIPOS>MOLECULE
ASD01810393
  26   27    0    0    0
SMALL
NO_CHARGES


@<TRIPOS>ATOM
   1 N1            -0.0161     1.3349     0.0094 N.pl3   
   2 C2             0.0021    -0.0041     0.0020 C.2     
   3 C3             1.1819    -0.7216    -0.0132 C.2     
   4 C4             2.4586     0.0079    -0.0215 C.2     
   5 C5             2.3937     1.4850    -0.0129 C.ar    
   6 N6             3.5007     2.2168    -0.0191 N.ar    
   7 C7             3.4543     3.5301    -0.0112 C.ar    
   8 C8             2.2411     4.2066     0.0045 C.ar    
   9 C9             1.0597     3.4913     0.0115 C.ar    
  10 C10            1.1304     2.0960     0.0025 C.ar    
  11 C11            1.1617    -2.1916    -0.0204 C.2     
  12 O12            0.1009    -2.7850    -0.0130 O.2     
  13 O13            2.3198    -2.8814    -0.0352 O.3     
  14 O14            3.5255    -0.5803    -0.0345 O.2     
  15 C15            2.2239    -4.3303    -0.0416 C.3     
  16 C16            3.6296    -4.9343    -0.0584 C.3     
  17 H17           -0.8739     1.7876     0.0158 H       
  18 H18           -0.9357    -0.5398     0.0085 H       
  19 H19            4.3757     4.0935    -0.0167 H       
  20 H20            2.2218     5.2864     0.0115 H       
  21 H21            0.1058     3.9975     0.0241 H       
  22 H22            1.6960    -4.6634     0.8519 H       
  23 H23            1.6786    -4.6544    -0.9279 H       
  24 H24            4.1575    -4.6011    -0.9519 H       
  25 H25            4.1749    -4.6101     0.8279 H       
  26 H26            3.5576    -6.0219    -0.0632 H       
@<TRIPOS>BOND
   1    1    2 1
   2    1   10 1
   3    1   17 1
   4    2    3 2
   5    2   18 1
   6    3    4 1
   7    3   11 1
   8    4    5 1
   9    4   14 2
  10    5    6 ar
  11    5   10 ar
  12    6    7 ar
  13    7    8 ar
  14    7   19 1
  15    8    9 ar
  16    8   20 1
  17    9   10 ar
  18    9   21 1
  19   11   12 2
  20   11   13 1
  21   13   15 1
  22   15   16 1
  23   15   22 1
  24   15   23 1
  25   16   24 1
  26   16   25 1
  27   16   26 1

#	End of record

