#	Name: ASD01410242
#	Creating user name:	WinNT
#	Creation time:	15. 06. 2019 19:17

#	Modifying user name:	WinNT
#	Modification time:	15. 06. 2019 19:17

#	Program:	/corina/corina34_cracker 3.40 0067  02.08.2006

@<TRIPOS>MOLECULE
ASD01410242
  58   61    0    0    0
SMALL
NO_CHARGES


@<TRIPOS>ATOM
   1 C1            -0.0163     1.3475     0.0095 C.2     
   2 C2             0.0021    -0.0041     0.0020 C.2     
   3 C3            -1.3321    -0.4376     0.0133 C.2     
   4 C4            -2.1146     0.7003     0.0274 C.2     
   5 O5            -1.2891     1.7679     0.0297 O.3     
   6 C6            -4.1759     1.9388     0.0546 C.2     
   7 S7            -3.4708     3.5687     0.0561 S.3     
   8 C8            -5.0402     4.3930     0.0687 C.2     
   9 N9            -5.9628     3.4599     0.0710 N.2     
  10 C10           -5.6233     2.1888     0.0644 C.2     
  11 C11           -3.5274     0.7396     0.0415 C.2     
  12 O12           -6.4473     1.2871     0.0659 O.2     
  13 N13           -5.2500     5.7478     0.0749 N.pl3   
  14 C14           -6.6159     6.2774     0.0851 C.3     
  15 C15            1.1990     2.2387     0.0026 C.3     
  16 C16            1.5965     2.5480    -1.4421 C.3     
  17 C17           -8.4276     5.9905     1.7882 C.ar    
  18 C18           -7.1203     6.3385     1.5039 C.ar    
  19 C19           -6.2756     6.7420     2.5210 C.ar    
  20 C20           -6.7383     6.7981     3.8224 C.ar    
  21 C21           -8.0459     6.4510     4.1066 C.ar    
  22 C22           -8.8908     6.0483     3.0894 C.ar    
  23 S23           -6.1569     7.5902    -2.2702 S.o2    
  24 N24           -6.2036     9.1605    -2.7939 N.am    
  25 C25           -5.3396    10.0645    -2.2913 C.2     
  26 C26           -5.4593    14.0923    -3.6350 C.ar    
  27 C27           -4.5322    13.7117    -2.6810 C.ar    
  28 C28           -4.4879    12.4052    -2.2404 C.ar    
  29 C29           -5.3813    11.4665    -2.7589 C.ar    
  30 C30           -6.3140    11.8570    -3.7210 C.ar    
  31 C31           -6.3474    13.1666    -4.1533 C.ar    
  32 O32           -7.1718     6.9395    -3.0224 O.2     
  33 O33           -4.7924     7.2166    -2.4042 O.2     
  34 O34           -4.5260     9.7272    -1.4536 O.2     
  35 C35           -6.6225     7.6829    -0.5194 C.3     
  36 H36            0.8800    -0.6329    -0.0108 H       
  37 H37           -1.6791    -1.4603     0.0108 H       
  38 H38           -4.0933    -0.1803     0.0420 H       
  39 H39           -4.4941     6.3556     0.0724 H       
  40 H40           -7.2626     5.6260    -0.5027 H       
  41 H41            0.9707     3.1685     0.5237 H       
  42 H42            2.0231     1.7331     0.5059 H       
  43 H43            2.4755     3.1926    -1.4470 H       
  44 H44            1.8248     1.6182    -1.9631 H       
  45 H45            0.7724     3.0536    -1.9454 H       
  46 H46           -9.0887     5.6791     0.9930 H       
  47 H47           -5.2541     7.0132     2.2989 H       
  48 H48           -6.0782     7.1127     4.6172 H       
  49 H49           -8.4073     6.4944     5.1234 H       
  50 H50           -9.9125     5.7774     3.3114 H       
  51 H51           -6.8529     9.4297    -3.4624 H       
  52 H52           -5.4927    15.1174    -3.9733 H       
  53 H53           -3.8415    14.4391    -2.2806 H       
  54 H54           -3.7636    12.1093    -1.4959 H       
  55 H55           -7.0078    11.1354    -4.1264 H       
  56 H56           -7.0686    13.4701    -4.8978 H       
  57 H57           -7.6207     8.1117    -0.4312 H       
  58 H58           -5.9087     8.3110     0.0136 H       
@<TRIPOS>BOND
   1    1    2 2
   2    1   15 1
   3    1    5 1
   4    2    3 1
   5    2   36 1
   6    3    4 2
   7    3   37 1
   8    4    5 1
   9    4   11 1
  10    6    7 1
  11    6   10 1
  12    6   11 2
  13    7    8 1
  14    8    9 2
  15    8   13 1
  16    9   10 1
  17   10   12 2
  18   11   38 1
  19   13   14 1
  20   13   39 1
  21   14   18 1
  22   14   35 1
  23   14   40 1
  24   15   16 1
  25   15   41 1
  26   15   42 1
  27   16   43 1
  28   16   44 1
  29   16   45 1
  30   17   18 ar
  31   17   22 ar
  32   17   46 1
  33   18   19 ar
  34   19   20 ar
  35   19   47 1
  36   20   21 ar
  37   20   48 1
  38   21   22 ar
  39   21   49 1
  40   22   50 1
  41   23   32 2
  42   23   33 2
  43   23   24 am
  44   23   35 1
  45   24   25 am
  46   24   51 1
  47   25   34 2
  48   25   29 1
  49   26   27 ar
  50   26   31 ar
  51   26   52 1
  52   27   28 ar
  53   27   53 1
  54   28   29 ar
  55   28   54 1
  56   29   30 ar
  57   30   31 ar
  58   30   55 1
  59   31   56 1
  60   35   57 1
  61   35   58 1

#	End of record

