#	Name: ASD01870662
#	Creating user name:	WinNT
#	Creation time:	15. 06. 2019 19:39

#	Modifying user name:	WinNT
#	Modification time:	15. 06. 2019 19:39

#	Program:	/corina/corina34_cracker 3.40 0067  02.08.2006

@<TRIPOS>MOLECULE
ASD01870662
  50   53    0    0    0
SMALL
NO_CHARGES


@<TRIPOS>ATOM
   1 C1            -0.0169     1.3923     0.0097 C.ar    
   2 C2             0.0021    -0.0041     0.0020 C.ar    
   3 C3             1.2294    -0.6442    -0.0131 C.ar    
   4 N4             2.3676     0.0416    -0.0203 N.ar    
   5 C5             2.4073     1.3546    -0.0136 C.ar    
   6 C6             1.2166     2.0926     0.0017 C.ar    
   7 N7             1.1914     3.4321     0.0095 N.ar    
   8 C8             0.0554     4.0839     0.0243 C.ar    
   9 N9            -1.1315     3.4976     0.0325 N.ar    
  10 C10           -1.2489     2.1750     0.0317 C.ar    
  11 N11            1.2721    -2.0363    -0.0205 N.pl3   
  12 C12            0.0265    -2.8074    -0.0123 C.3     
  13 C13            0.3521    -4.3024    -0.0230 C.3     
  14 O14            1.0216    -4.6527     1.1899 O.3     
  15 C15            1.3723    -6.0349     1.2818 C.3     
  16 C16            2.0797    -6.2942     2.6135 C.3     
  17 O17            1.1685    -6.0630     3.6897 O.3     
  18 N18           -2.4854     1.5651     0.0459 N.pl3   
  19 C19           -3.7033     2.3790     0.0679 C.3     
  20 C20           -5.7185     2.6431    -1.2609 C.ar    
  21 C21           -4.2084     2.6494    -1.3653 C.3     
  22 C22           -4.8771     1.5932     0.6899 C.3     
  23 C23           -8.4053     2.4041    -0.6400 C.ar    
  24 C24           -8.0209     3.0112    -1.8212 C.ar    
  25 C25           -6.6802     3.1303    -2.1303 C.ar    
  26 C26           -6.1027     2.0363    -0.0801 C.ar    
  27 C27           -7.4477     1.9181     0.2285 C.ar    
  28 H28           -0.9176    -0.5703     0.0081 H       
  29 H29            3.3587     1.8657    -0.0199 H       
  30 H30            0.0890     5.1634     0.0305 H       
  31 H31            2.1266    -2.4952    -0.0311 H       
  32 H32           -0.5442    -2.5663     0.8845 H       
  33 H33           -0.5615    -2.5573    -0.8954 H       
  34 H34           -0.5717    -4.8748    -0.1065 H       
  35 H35            0.9972    -4.5277    -0.8722 H       
  36 H36            0.4697    -6.6434     1.2254 H       
  37 H37            2.0386    -6.2962     0.4596 H       
  38 H38            2.4258    -7.3272     2.6460 H       
  39 H39            2.9325    -5.6221     2.7087 H       
  40 H40            1.5501    -6.2086     4.5663 H       
  41 H41           -2.5488     0.5972     0.0414 H       
  42 H42           -3.5341     3.3123     0.6048 H       
  43 H43           -3.8574     3.6210    -1.7130 H       
  44 H44           -3.8726     1.8616    -2.0396 H       
  45 H45           -4.7212     0.5212     0.5685 H       
  46 H46           -4.9827     1.8436     1.7455 H       
  47 H47           -9.4533     2.3105    -0.3964 H       
  48 H48           -8.7684     3.3915    -2.5016 H       
  49 H49           -6.3808     3.6049    -3.0531 H       
  50 H50           -7.7487     1.4441     1.1510 H       
@<TRIPOS>BOND
   1    1    2 ar
   2    1    6 ar
   3    1   10 ar
   4    2    3 ar
   5    2   28 1
   6    3    4 ar
   7    3   11 1
   8    4    5 ar
   9    5    6 ar
  10    5   29 1
  11    6    7 ar
  12    7    8 ar
  13    8    9 ar
  14    8   30 1
  15    9   10 ar
  16   10   18 1
  17   11   12 1
  18   11   31 1
  19   12   13 1
  20   12   32 1
  21   12   33 1
  22   13   14 1
  23   13   34 1
  24   13   35 1
  25   14   15 1
  26   15   16 1
  27   15   36 1
  28   15   37 1
  29   16   17 1
  30   16   38 1
  31   16   39 1
  32   17   40 1
  33   18   19 1
  34   18   41 1
  35   19   22 1
  36   19   21 1
  37   19   42 1
  38   20   21 1
  39   20   26 ar
  40   20   25 ar
  41   21   43 1
  42   21   44 1
  43   22   26 1
  44   22   45 1
  45   22   46 1
  46   23   24 ar
  47   23   27 ar
  48   23   47 1
  49   24   25 ar
  50   24   48 1
  51   25   49 1
  52   26   27 ar
  53   27   50 1

#	End of record

