#	Name: ASD00310262
#	Creating user name:	WinNT
#	Creation time:	15. 06. 2019 18:34

#	Modifying user name:	WinNT
#	Modification time:	15. 06. 2019 18:34

#	Program:	/corina/corina34_cracker 3.40 0067  02.08.2006

@<TRIPOS>MOLECULE
ASD00310262
  50   54    0    0    0
SMALL
NO_CHARGES


@<TRIPOS>ATOM
   1 O1             0.6320     0.1078    -1.3398 O.3     
   2 C2            -0.0000     0.0010    -0.1546 C.2     
   3 O3             0.4675     0.5320     0.8333 O.2     
   4 C4            -1.2592    -0.7605    -0.0563 C.ar    
   5 C5            -1.8602    -0.9632     1.1892 C.ar    
   6 C6            -3.0359    -1.6748     1.2765 C.ar    
   7 C7            -3.6249    -2.1912     0.1283 C.ar    
   8 C8            -3.0301    -1.9922    -1.1126 C.ar    
   9 C9            -1.8580    -1.2766    -1.2094 C.ar    
  10 O10           -4.7837    -2.8919     0.2187 O.3     
  11 C11           -1.2222    -0.4042     2.4348 C.3     
  12 C12           -5.9152    -2.2127     0.5170 C.2     
  13 N13           -6.0032    -0.9129     0.6267 N.2     
  14 C14           -7.2815    -0.5666     0.9346 C.ar    
  15 C15           -8.0230    -1.7576     1.0167 C.ar    
  16 N16           -7.1342    -2.7825     0.7422 N.pl3   
  17 C17           -7.9139     0.6565     1.1598 C.ar    
  18 C18           -9.2682     0.6848     1.4625 C.ar    
  19 C19           -9.9969    -0.5065     1.5423 C.ar    
  20 C20           -9.3770    -1.7167     1.3203 C.ar    
  21 Cl21         -11.6901    -0.4598     1.9227 Cl      
  22 C22           -9.9451     1.9833     1.7029 C.ar    
  23 C23           -9.3922     2.9020     2.5938 C.ar    
  24 C24          -10.0220     4.1123     2.8181 C.ar    
  25 C25          -11.1949     4.4122     2.1634 C.ar    
  26 C26          -11.7637     3.5035     1.2669 C.ar    
  27 C27          -11.1271     2.2842     1.0346 C.ar    
  28 C28          -12.1090     5.6136     2.1848 C.3     
  29 C29          -13.2275     5.2863     1.2235 C.2     
  30 C30          -13.0039     4.0853     0.7200 C.2     
  31 C31          -12.6671     5.8292     3.5929 C.3     
  32 H32            1.4540     0.6169    -1.3547 H       
  33 H33           -3.5008    -1.8322     2.2385 H       
  34 H34           -3.4906    -2.3957    -2.0023 H       
  35 H35           -1.3968    -1.1222    -2.1737 H       
  36 H36           -1.5061     0.6418     2.5503 H       
  37 H37           -1.5613    -0.9706     3.3022 H       
  38 H38           -0.1379    -0.4795     2.3528 H       
  39 H39           -7.3387    -3.7304     0.7199 H       
  40 H40           -7.3522     1.5769     1.0992 H       
  41 H41           -9.9444    -2.6335     1.3827 H       
  42 H42           -8.4722     2.6682     3.1091 H       
  43 H43           -9.5930     4.8235     3.5084 H       
  44 H44          -11.5553     1.5724     0.3444 H       
  45 H45          -11.5725     6.5017     1.8509 H       
  46 H46          -14.0661     5.9247     0.9879 H       
  47 H47          -13.6447     3.5943     0.0026 H       
  48 H48          -11.8444     5.9949     4.2884 H       
  49 H49          -13.3245     6.6986     3.5940 H       
  50 H50          -13.2301     4.9476     3.8995 H       
@<TRIPOS>BOND
   1    1    2 1
   2    1   32 1
   3    2    3 2
   4    2    4 1
   5    4    5 ar
   6    4    9 ar
   7    5    6 ar
   8    5   11 1
   9    6    7 ar
  10    6   33 1
  11    7    8 ar
  12    7   10 1
  13    8    9 ar
  14    8   34 1
  15    9   35 1
  16   10   12 1
  17   11   36 1
  18   11   37 1
  19   11   38 1
  20   12   13 2
  21   12   16 1
  22   13   14 1
  23   14   15 ar
  24   14   17 ar
  25   15   16 1
  26   15   20 ar
  27   16   39 1
  28   17   18 ar
  29   17   40 1
  30   18   19 ar
  31   18   22 1
  32   19   20 ar
  33   19   21 1
  34   20   41 1
  35   22   23 ar
  36   22   27 ar
  37   23   24 ar
  38   23   42 1
  39   24   25 ar
  40   24   43 1
  41   25   26 ar
  42   25   28 1
  43   26   27 ar
  44   26   30 1
  45   27   44 1
  46   28   29 1
  47   28   31 1
  48   28   45 1
  49   29   30 2
  50   29   46 1
  51   30   47 1
  52   31   48 1
  53   31   49 1
  54   31   50 1

#	End of record

