#	Name: ASD05213008
#	Creating user name:	WinNT
#	Creation time:	15. 06. 2019 20:57

#	Modifying user name:	WinNT
#	Modification time:	15. 06. 2019 20:57

#	Program:	/corina/corina34_cracker 3.40 0067  02.08.2006

@<TRIPOS>MOLECULE
ASD05213008
  36   38    0    0    0
SMALL
NO_CHARGES


@<TRIPOS>ATOM
   1 C1            -0.0184     1.5028     0.0103 C.ar    
   2 C2             0.0021    -0.0041     0.0020 C.3     
   3 C3             0.0225    -0.5140     1.4200 C.2     
   4 N4             0.0428    -1.8402     1.6590 N.am    
   5 C5             0.0615    -2.3094     2.9637 C.2     
   6 S6             0.0606    -1.3182     4.3502 S.3     
   7 C7             0.0893    -2.6989     5.4325 C.2     
   8 C8             0.0987    -3.8337     4.7479 C.2     
   9 C9             0.0774    -3.6342     3.3155 C.2     
  10 C10            0.0821    -4.7317     2.3432 C.2     
  11 O11            0.0628    -4.4886     1.1508 O.2     
  12 N12            0.1077    -6.0099     2.7700 N.am    
  13 O13            0.0206     0.2691     2.3461 O.2     
  14 C14            1.1697     2.2089     0.0028 C.ar    
  15 C15            1.1551     3.5912     0.0118 C.ar    
  16 C16           -0.0521     4.2730     0.0282 C.ar    
  17 C17           -1.2471     3.5628     0.0325 C.ar    
  18 C18           -1.2255     2.1764     0.0197 C.ar    
  19 O19           -0.0508     5.6340     0.0447 O.3     
  20 C20           -1.2748     6.2832    -0.3160 C.3     
  21 C21           -2.4242     5.5904     0.4284 C.3     
  22 O22           -2.4432     4.2122     0.0406 O.3     
  23 H23           -0.8878    -0.3767    -0.5053 H       
  24 H24            0.8920    -0.3525    -0.5222 H       
  25 H25            0.0443    -2.4665     0.9183 H       
  26 H26            0.0988    -2.6330     6.5105 H       
  27 H27            0.1166    -4.8086     5.2124 H       
  28 H28            0.1231    -6.2037     3.7203 H       
  29 H29            0.1108    -6.7360     2.1268 H       
  30 H30            2.1112     1.6798    -0.0099 H       
  31 H31            2.0850     4.1405     0.0064 H       
  32 H32           -2.1525     1.6223     0.0246 H       
  33 H33           -1.2319     7.3339    -0.0294 H       
  34 H34           -1.4313     6.2011    -1.3916 H       
  35 H35           -2.2649     5.6675     1.5039 H       
  36 H36           -3.3709     6.0603     0.1619 H       
@<TRIPOS>BOND
   1    1    2 1
   2    1   14 ar
   3    1   18 ar
   4    2    3 1
   5    2   23 1
   6    2   24 1
   7    3    4 am
   8    3   13 2
   9    4    5 1
  10    4   25 1
  11    5    6 1
  12    5    9 2
  13    6    7 1
  14    7    8 2
  15    7   26 1
  16    8    9 1
  17    8   27 1
  18    9   10 1
  19   10   11 2
  20   10   12 am
  21   12   28 1
  22   12   29 1
  23   14   15 ar
  24   14   30 1
  25   15   16 ar
  26   15   31 1
  27   16   17 ar
  28   16   19 1
  29   17   18 ar
  30   17   22 1
  31   18   32 1
  32   19   20 1
  33   20   21 1
  34   20   33 1
  35   20   34 1
  36   21   22 1
  37   21   35 1
  38   21   36 1

#	End of record

