#	Name: ASD03091261
#	Creating user name:	WinNT
#	Creation time:	15. 06. 2019 20:30

#	Modifying user name:	WinNT
#	Modification time:	15. 06. 2019 20:30

#	Program:	/corina/corina34_cracker 3.40 0067  02.08.2006

@<TRIPOS>MOLECULE
ASD03091261
  59   63    0    0    0
SMALL
NO_CHARGES


@<TRIPOS>ATOM
   1 N1            -0.0668     1.3744    -0.0061 N.2     
   2 C2            -0.1153     0.0678     0.0035 C.2     
   3 N3             1.0031    -0.7212     0.0199 N.am    
   4 C4             2.2355    -0.1619     0.0269 C.2     
   5 C5             2.3143     1.3065     0.0163 C.ar    
   6 C6             3.5358     1.9760     0.0219 C.ar    
   7 C7             3.5511     3.3606     0.0109 C.ar    
   8 C8             2.3560     4.0799    -0.0056 C.ar    
   9 C9             1.1514     3.4377    -0.0113 C.ar    
  10 C10            1.1060     2.0401    -0.0005 C.ar    
  11 O11            3.2407    -0.8483     0.0418 O.2     
  12 C12           -1.4401    -0.5881    -0.0031 C.ar    
  13 C13           -1.7674    -1.5109     0.9884 C.ar    
  14 C14           -3.0187    -2.1242     0.9750 C.ar    
  15 C15           -3.9361    -1.8103    -0.0314 C.ar    
  16 C16           -3.6050    -0.8951    -1.0105 C.ar    
  17 C17           -2.3687    -0.2799    -0.9998 C.ar    
  18 C18           -3.3634    -3.0740     1.9896 C.1     
  19 N19           -3.6369    -3.8276     2.7946 N.1     
  20 C20            0.8652    -2.1797     0.0303 C.3     
  21 C21            0.6814    -2.6848    -1.4021 C.3     
  22 O22            1.8670    -2.4226    -2.1555 O.3     
  23 C23            1.7999    -2.8578    -3.5150 C.3     
  24 N24            7.5474     4.6607    -0.8084 N.3     
  25 C25            7.2220     3.8196     0.3535 C.3     
  26 C26            5.8952     3.1061     0.1456 C.3     
  27 N27            4.7715     4.0416     0.0168 N.3     
  28 C28            4.9201     4.8667    -1.1902 C.3     
  29 C29            5.6039     6.1831    -0.8525 C.3     
  30 C30            7.0868     6.0373    -0.5770 C.3     
  31 C31            7.1544     4.1451    -2.1023 C.3     
  32 C32            5.6445     4.0643    -2.2555 C.3     
  33 H33            4.4619     1.4205     0.0350 H       
  34 H34            2.3841     5.1596    -0.0137 H       
  35 H35            0.2345     4.0083    -0.0238 H       
  36 H36           -1.0544    -1.7500     1.7636 H       
  37 H37           -4.9061    -2.2850    -0.0434 H       
  38 H38           -4.3177    -0.6561    -1.7859 H       
  39 H39           -2.1178     0.4385    -1.7663 H       
  40 H40            1.7615    -2.6262     0.4609 H       
  41 H41           -0.0027    -2.4583     0.6281 H       
  42 H42            0.4903    -3.7579    -1.3872 H       
  43 H43           -0.1628    -2.1718    -1.8628 H       
  44 H44            1.6320    -3.9344    -3.5439 H       
  45 H45            0.9789    -2.3483    -4.0195 H       
  46 H46            2.7376    -2.6227    -4.0184 H       
  47 H47            8.0098     3.0793     0.4927 H       
  48 H48            7.1574     4.4458     1.2433 H       
  49 H49            5.9572     2.5021    -0.7596 H       
  50 H50            5.7113     2.4482     0.9950 H       
  51 H51            3.9233     5.0907    -1.5702 H       
  52 H52            5.4694     6.8709    -1.6873 H       
  53 H53            5.1250     6.6096     0.0289 H       
  54 H54            7.2846     6.3091     0.4599 H       
  55 H55            7.6384     6.7119    -1.2318 H       
  56 H56            7.5541     4.7972    -2.8789 H       
  57 H57            7.5765     3.1481    -2.2286 H       
  58 H58            5.3365     3.0212    -2.1841 H       
  59 H59            5.3670     4.4475    -3.2375 H       
@<TRIPOS>BOND
   1    1    2 2
   2    1   10 1
   3    2    3 1
   4    2   12 1
   5    3    4 am
   6    3   20 1
   7    4    5 1
   8    4   11 2
   9    5    6 ar
  10    5   10 ar
  11    6    7 ar
  12    6   33 1
  13    7    8 ar
  14    7   27 1
  15    8    9 ar
  16    8   34 1
  17    9   10 ar
  18    9   35 1
  19   12   13 ar
  20   12   17 ar
  21   13   14 ar
  22   13   36 1
  23   14   15 ar
  24   14   18 1
  25   15   16 ar
  26   15   37 1
  27   16   17 ar
  28   16   38 1
  29   17   39 1
  30   18   19 3
  31   20   21 1
  32   20   40 1
  33   20   41 1
  34   21   22 1
  35   21   42 1
  36   21   43 1
  37   22   23 1
  38   23   44 1
  39   23   45 1
  40   23   46 1
  41   24   25 1
  42   24   30 1
  43   24   31 1
  44   25   26 1
  45   25   47 1
  46   25   48 1
  47   26   27 1
  48   26   49 1
  49   26   50 1
  50   27   28 1
  51   28   29 1
  52   28   32 1
  53   28   51 1
  54   29   30 1
  55   29   52 1
  56   29   53 1
  57   30   54 1
  58   30   55 1
  59   31   32 1
  60   31   56 1
  61   31   57 1
  62   32   58 1
  63   32   59 1

#	End of record

