#	Name: ASD02560540
#	Creating user name:	WinNT
#	Creation time:	15. 06. 2019 20:25

#	Modifying user name:	WinNT
#	Modification time:	15. 06. 2019 20:25

#	Program:	/corina/corina34_cracker 3.40 0067  02.08.2006

@<TRIPOS>MOLECULE
ASD02560540
  52   56    0    0    0
SMALL
NO_CHARGES


@<TRIPOS>ATOM
   1 N1            -0.0191     1.2805     0.0820 N.2     
   2 N2            -0.0010    -0.0042     0.0570 N.2     
   3 C3             1.1978     1.7477     0.0504 C.2     
   4 N4             2.0453     0.6720     0.0018 N.pl3   
   5 C5             1.2382    -0.4338     0.0077 C.2     
   6 S6             1.7634    -2.1149    -0.0417 S.3     
   7 C7             0.1567    -2.9474    -0.0040 C.3     
   8 C8             0.3632    -4.4398    -0.0392 C.2     
   9 O9             1.4861    -4.8957    -0.0852 O.2     
  10 N10           -0.7000    -5.2679    -0.0195 N.am    
  11 C11            3.4441     0.6984    -0.0446 C.ar    
  12 Br12           1.6998     3.5708     0.0683 Br      
  13 C13            4.1783     0.6886     1.1208 C.ar    
  14 C14            5.5695     0.7141     1.0860 C.ar    
  15 C15            6.2424     0.7497    -0.0971 C.ar    
  16 C16            5.5306     0.7607    -1.3085 C.ar    
  17 C17            4.1143     0.7292    -1.2853 C.ar    
  18 C18            6.1981     0.7967    -2.5452 C.ar    
  19 C19            5.4773     0.8060    -3.6995 C.ar    
  20 C20            4.0841     0.7808    -3.6755 C.ar    
  21 C21            3.4045     0.7393    -2.4966 C.ar    
  22 C22            7.7491     0.7778    -0.1073 C.3     
  23 C23           -0.5133    -6.6452    -0.1340 C.ar    
  24 C24           -1.5322    -7.4442    -0.6469 C.ar    
  25 C25           -1.3507    -8.8046    -0.7611 C.ar    
  26 C26           -0.1417    -9.3827    -0.3618 C.ar    
  27 C27            0.8785    -8.5771     0.1520 C.ar    
  28 C28            0.6922    -7.2170     0.2590 C.ar    
  29 C29            0.0564   -10.8390    -0.4820 C.2     
  30 O30           -0.8315   -11.5381    -0.9284 O.2     
  31 Cl31          -3.0325    -6.7247    -1.1421 Cl      
  32 C32            8.4385     1.9527     0.5893 C.3     
  33 C33            8.4687     0.5615     1.2255 C.3     
  34 O34            1.2221   -11.3945    -0.0967 O.3     
  35 H35           -0.3722    -2.6753     0.9094 H       
  36 H36           -0.4314    -2.6415    -0.8693 H       
  37 H37           -1.5950    -4.9059     0.0742 H       
  38 H38            3.6686     0.6613     2.0726 H       
  39 H39            6.1242     0.7059     2.0126 H       
  40 H40            7.2773     0.8172    -2.5790 H       
  41 H41            5.9926     0.8336    -4.6482 H       
  42 H42            3.5357     0.7896    -4.6059 H       
  43 H43            2.3247     0.7199    -2.4930 H       
  44 H44            8.2207     0.3779    -1.0049 H       
  45 H45           -2.1412    -9.4242    -1.1582 H       
  46 H46            1.8134    -9.0205     0.4613 H       
  47 H47            1.4804    -6.5943     0.6556 H       
  48 H48            9.3638     2.3255     0.1502 H       
  49 H49            7.8023     2.7053     1.0550 H       
  50 H50            7.8524     0.3989     2.1097 H       
  51 H51            9.4140     0.0191     1.2049 H       
  52 H52            1.3052   -12.3529    -0.1945 H       
@<TRIPOS>BOND
   1    1    2 1
   2    1    3 2
   3    2    5 2
   4    3    4 1
   5    3   12 1
   6    4    5 1
   7    4   11 1
   8    5    6 1
   9    6    7 1
  10    7    8 1
  11    7   35 1
  12    7   36 1
  13    8    9 2
  14    8   10 am
  15   10   23 1
  16   10   37 1
  17   11   13 ar
  18   11   17 ar
  19   13   14 ar
  20   13   38 1
  21   14   15 ar
  22   14   39 1
  23   15   16 ar
  24   15   22 1
  25   16   17 ar
  26   16   18 ar
  27   17   21 ar
  28   18   19 ar
  29   18   40 1
  30   19   20 ar
  31   19   41 1
  32   20   21 ar
  33   20   42 1
  34   21   43 1
  35   22   32 1
  36   22   33 1
  37   22   44 1
  38   23   24 ar
  39   23   28 ar
  40   24   25 ar
  41   24   31 1
  42   25   26 ar
  43   25   45 1
  44   26   27 ar
  45   26   29 1
  46   27   28 ar
  47   27   46 1
  48   28   47 1
  49   29   30 2
  50   29   34 1
  51   32   33 1
  52   32   48 1
  53   32   49 1
  54   33   50 1
  55   33   51 1
  56   34   52 1

#	End of record

