#	Name: ASD03092002
#	Creating user name:	WinNT
#	Creation time:	15. 06. 2019 20:31

#	Modifying user name:	WinNT
#	Modification time:	15. 06. 2019 20:31

#	Program:	/corina/corina34_cracker 3.40 0067  02.08.2006

@<TRIPOS>MOLECULE
ASD03092002
  49   52    0    0    0
SMALL
NO_CHARGES


@<TRIPOS>ATOM
   1 C1             1.3826    -1.1068     0.2701 C.ar    
   2 N2             0.2385    -0.5709    -0.1108 N.ar    
   3 C3             0.1412     0.6998    -0.4571 C.ar    
   4 C4             1.2465     1.5270    -0.4337 C.ar    
   5 C5             2.4799     0.9995    -0.0360 C.ar    
   6 C6             2.5359    -0.3523     0.3223 C.ar    
   7 Cl7           -1.3964     1.3384    -0.9487 Cl      
   8 C8             3.6916     1.8472     0.0043 C.2     
   9 C9             4.9850     1.4110    -0.0407 C.2     
  10 C10            5.8183     2.5350     0.0217 C.2     
  11 N11            5.0644     3.6071     0.1011 N.2     
  12 N12            3.7220     3.2078     0.0873 N.pl3   
  13 C13            2.5575     4.0939     0.1582 C.3     
  14 C14            2.2215     4.6076    -1.2432 C.3     
  15 C15            1.0914     5.6009    -1.1566 C.2     
  16 N16            0.6236     6.1887    -2.2755 N.am    
  17 C17           -0.4749     7.1543    -2.1913 C.3     
  18 C18            1.2137     5.8622    -3.5761 C.3     
  19 O19            0.6030     5.8713    -0.0799 O.2     
  20 N20            7.2182     2.5182     0.0025 N.pl3   
  21 C21            7.9317     3.7210    -0.0462 C.ar    
  22 C22            9.2211     3.7846     0.4645 C.ar    
  23 C23            9.9268     4.9753     0.4155 C.ar    
  24 C24            9.3409     6.1070    -0.1465 C.ar    
  25 C25            8.0541     6.0394    -0.6555 C.ar    
  26 C26            7.3522     4.8499    -0.6108 C.ar    
  27 O27           11.1834     5.2993     0.8394 O.3     
  28 C28           11.5125     6.5277     0.1643 C.3     
  29 O29           10.2316     7.1405    -0.0746 O.3     
  30 F30           12.3021     7.3422     0.9829 F       
  31 F31           12.1646     6.2645    -1.0451 F       
  32 H32            1.4155    -2.1496     0.5491 H       
  33 H33            1.1604     2.5652    -0.7184 H       
  34 H34            3.4685    -0.7980     0.6354 H       
  35 H35            5.3077     0.3828    -0.1118 H       
  36 H36            1.7057     3.5433     0.5573 H       
  37 H37            2.7824     4.9379     0.8103 H       
  38 H38            3.0985     5.0917    -1.6728 H       
  39 H39            1.9223     3.7711    -1.8748 H       
  40 H40           -0.0683     8.1562    -2.0537 H       
  41 H41           -1.0583     7.1221    -3.1114 H       
  42 H42           -1.1155     6.9030    -1.3459 H       
  43 H43            2.0109     5.1313    -3.4401 H       
  44 H44            0.4465     5.4458    -4.2289 H       
  45 H45            1.6227     6.7664    -4.0268 H       
  46 H46            7.6934     1.6729     0.0231 H       
  47 H47            9.6735     2.9061     0.9003 H       
  48 H48            7.5999     6.9171    -1.0910 H       
  49 H49            6.3493     4.8001    -1.0083 H       
@<TRIPOS>BOND
   1    1    2 ar
   2    1    6 ar
   3    1   32 1
   4    2    3 ar
   5    3    4 ar
   6    3    7 1
   7    4    5 ar
   8    4   33 1
   9    5    6 ar
  10    5    8 1
  11    6   34 1
  12    8    9 2
  13    8   12 1
  14    9   10 1
  15    9   35 1
  16   10   11 2
  17   10   20 1
  18   11   12 1
  19   12   13 1
  20   13   14 1
  21   13   36 1
  22   13   37 1
  23   14   15 1
  24   14   38 1
  25   14   39 1
  26   15   16 am
  27   15   19 2
  28   16   17 1
  29   16   18 1
  30   17   40 1
  31   17   41 1
  32   17   42 1
  33   18   43 1
  34   18   44 1
  35   18   45 1
  36   20   21 1
  37   20   46 1
  38   21   22 ar
  39   21   26 ar
  40   22   23 ar
  41   22   47 1
  42   23   24 ar
  43   23   27 1
  44   24   25 ar
  45   24   29 1
  46   25   26 ar
  47   25   48 1
  48   26   49 1
  49   27   28 1
  50   28   29 1
  51   28   30 1
  52   28   31 1

#	End of record

