#	Name: ASD01811853
#	Creating user name:	WinNT
#	Creation time:	15. 06. 2019 19:27

#	Modifying user name:	WinNT
#	Modification time:	15. 06. 2019 19:27

#	Program:	/corina/corina34_cracker 3.40 0067  02.08.2006

@<TRIPOS>MOLECULE
ASD01811853
  52   55    0    0    0
SMALL
NO_CHARGES


@<TRIPOS>ATOM
   1 N1            -0.0158     1.3107     0.0092 N.ar    
   2 C2             0.0021    -0.0041     0.0020 C.ar    
   3 C3             1.2008    -0.6996    -0.0132 C.ar    
   4 C4             2.3946     0.0043    -0.0208 C.ar    
   5 C5             2.3453     1.3897    -0.0129 C.ar    
   6 C6             1.1048     2.0225     0.0024 C.ar    
   7 C7             1.2061    -2.2066    -0.0208 C.3     
   8 C8             1.0350     3.5025     0.0105 C.2     
   9 N9            -0.1625     4.1206     0.0248 N.am    
  10 O10            2.0576     4.1589     0.0043 O.2     
  11 C11           -0.2315     5.5840     0.0328 C.3     
  12 C12            3.7161    -0.7198    -0.0368 C.3     
  13 C13            4.0839    -1.0626    -1.4575 C.ar    
  14 C14            3.6741    -2.2653    -2.0042 C.ar    
  15 C15            4.8252    -0.1709    -2.2116 C.ar    
  16 C16            5.1645    -0.4794    -3.5133 C.ar    
  17 C17            4.7592    -1.6922    -4.0675 C.ar    
  18 C18            4.0080    -2.5845    -3.3047 C.ar    
  19 C19           -1.6586     7.5573     0.5798 C.3     
  20 C20           -1.5615     6.0309     0.6474 C.3     
  21 C21           -0.1434     6.1090    -1.4035 C.3     
  22 C22           -0.2953     7.6323    -1.3919 C.3     
  23 O23           -1.5385     7.9811    -0.7796 O.3     
  24 O24           -1.6232     5.6085     2.0112 O.3     
  25 C25            5.1207    -2.0294    -5.4661 C.2     
  26 C26            4.7591    -3.1852    -6.0591 C.2     
  27 S27            5.3928    -3.1710    -7.7029 S.3     
  28 C28            6.0773    -1.6272    -7.4396 C.2     
  29 N29            5.8228    -1.2189    -6.2448 N.2     
  30 H30           -0.9301    -0.5494     0.0084 H       
  31 H31            3.2561     1.9701    -0.0181 H       
  32 H32            1.1974    -2.5647    -1.0503 H       
  33 H33            2.1023    -2.5693     0.4825 H       
  34 H34            0.3225    -2.5757     0.4998 H       
  35 H35           -0.9788     3.5966     0.0298 H       
  36 H36            0.5955     5.9848     0.6189 H       
  37 H37            4.4863    -0.0797     0.3936 H       
  38 H38            3.6358    -1.6356     0.5488 H       
  39 H39            3.0920    -2.9560    -1.4122 H       
  40 H40            5.1388     0.7687    -1.7811 H       
  41 H41            5.7427     0.2178    -4.1015 H       
  42 H42            3.6872    -3.5237    -3.7307 H       
  43 H43           -2.6216     7.8782     0.9769 H       
  44 H44           -0.8561     7.9991     1.1705 H       
  45 H45           -2.3872     5.5884     0.0903 H       
  46 H46            0.8237     5.8426    -1.8300 H       
  47 H47           -0.9405     5.6680    -2.0020 H       
  48 H48            0.5250     8.0751    -0.8269 H       
  49 H49           -0.2762     8.0073    -2.4152 H       
  50 H50           -2.4384     5.8624     2.4651 H       
  51 H51            4.1832    -3.9789    -5.6066 H       
  52 H52            6.6404    -1.0700    -8.1738 H       
@<TRIPOS>BOND
   1    1    2 ar
   2    1    6 ar
   3    2    3 ar
   4    2   30 1
   5    3    4 ar
   6    3    7 1
   7    4    5 ar
   8    4   12 1
   9    5    6 ar
  10    5   31 1
  11    6    8 1
  12    7   32 1
  13    7   33 1
  14    7   34 1
  15    8    9 am
  16    8   10 2
  17    9   11 1
  18    9   35 1
  19   11   21 1
  20   11   20 1
  21   11   36 1
  22   12   13 1
  23   12   37 1
  24   12   38 1
  25   13   15 ar
  26   13   14 ar
  27   14   18 ar
  28   14   39 1
  29   15   16 ar
  30   15   40 1
  31   16   17 ar
  32   16   41 1
  33   17   18 ar
  34   17   25 1
  35   18   42 1
  36   19   20 1
  37   19   23 1
  38   19   43 1
  39   19   44 1
  40   20   24 1
  41   20   45 1
  42   21   22 1
  43   21   46 1
  44   21   47 1
  45   22   23 1
  46   22   48 1
  47   22   49 1
  48   24   50 1
  49   25   26 2
  50   25   29 1
  51   26   27 1
  52   26   51 1
  53   27   28 1
  54   28   29 2
  55   28   52 1

#	End of record

