#	Name: ASD00170066
#	Creating user name:	WinNT
#	Creation time:	15. 06. 2019 18:31

#	Modifying user name:	WinNT
#	Modification time:	15. 06. 2019 18:31

#	Program:	/corina/corina34_cracker 3.40 0067  02.08.2006

@<TRIPOS>MOLECULE
ASD00170066
  36   38    0    0    0
SMALL
NO_CHARGES


@<TRIPOS>ATOM
   1 C1             0.0145     1.3183    -0.0548 C.2     
   2 C2             0.0205    -0.0182    -0.0730 C.2     
   3 C3            -1.3167    -0.5802     0.0123 C.2     
   4 C4            -2.3004     0.3740     0.0937 C.2     
   5 S5            -1.6250     1.9363     0.0613 S.3     
   6 N6            -3.6501     0.1042     0.1831 N.pl3   
   7 C7            -1.5874    -2.0166     0.0109 C.2     
   8 C8            -1.8374    -2.7217    -1.2670 C.ar    
   9 O9            -1.6072    -2.6335     1.0604 O.2     
  10 C10           -1.9781    -4.1103    -1.2820 C.ar    
  11 C11           -2.2102    -4.7666    -2.4708 C.ar    
  12 C12           -2.3053    -4.0423    -3.6610 C.ar    
  13 C13           -2.1650    -2.6531    -3.6457 C.ar    
  14 C14           -1.9380    -1.9969    -2.4557 C.ar    
  15 C15            1.2610     2.1796    -0.1310 C.3     
  16 C16            2.4804     1.3107     0.1884 C.3     
  17 C17            2.4277     0.0421    -0.6681 C.3     
  18 C18            1.2885    -0.8514    -0.1722 C.3     
  19 C19           -2.5540    -4.7464    -4.9372 C.2     
  20 O20           -2.6756    -5.9548    -4.9504 O.2     
  21 O21           -2.6456    -4.0477    -6.0851 O.3     
  22 H22           -3.9674    -0.8100     0.1163 H       
  23 H23           -4.2819     0.8286     0.3129 H       
  24 H24           -1.9045    -4.6704    -0.3615 H       
  25 H25           -2.3184    -5.8411    -2.4824 H       
  26 H26           -2.2380    -2.0927    -4.5660 H       
  27 H27           -1.8295    -0.9224    -2.4438 H       
  28 H28            1.3592     2.5922    -1.1351 H       
  29 H29            1.1899     2.9903     0.5941 H       
  30 H30            3.3918     1.8648    -0.0362 H       
  31 H31            2.4681     1.0389     1.2439 H       
  32 H32            2.2520     0.3125    -1.7093 H       
  33 H33            3.3734    -0.4935    -0.5845 H       
  34 H34            1.5400    -1.2529     0.8095 H       
  35 H35            1.1335    -1.6698    -0.8752 H       
  36 H36           -2.8090    -4.5518    -6.8940 H       
@<TRIPOS>BOND
   1    1    2 2
   2    1   15 1
   3    1    5 1
   4    2    3 1
   5    2   18 1
   6    3    4 2
   7    3    7 1
   8    4    5 1
   9    4    6 1
  10    6   22 1
  11    6   23 1
  12    7    8 1
  13    7    9 2
  14    8   10 ar
  15    8   14 ar
  16   10   11 ar
  17   10   24 1
  18   11   12 ar
  19   11   25 1
  20   12   13 ar
  21   12   19 1
  22   13   14 ar
  23   13   26 1
  24   14   27 1
  25   15   16 1
  26   15   28 1
  27   15   29 1
  28   16   17 1
  29   16   30 1
  30   16   31 1
  31   17   18 1
  32   17   32 1
  33   17   33 1
  34   18   34 1
  35   18   35 1
  36   19   20 2
  37   19   21 1
  38   21   36 1

#	End of record

