#	Name: ASD04560181
#	Creating user name:	WinNT
#	Creation time:	15. 06. 2019 20:49

#	Modifying user name:	WinNT
#	Modification time:	15. 06. 2019 20:49

#	Program:	/corina/corina34_cracker 3.40 0067  02.08.2006

@<TRIPOS>MOLECULE
ASD04560181
  43   44    0    0    0
SMALL
NO_CHARGES


@<TRIPOS>ATOM
   1 C1            -1.1740     3.7294    -0.8140 C.ar    
   2 C2            -2.3153     4.5035    -0.9106 C.ar    
   3 C3            -2.2698     5.8307    -0.5153 C.ar    
   4 N4            -1.1557     6.3648    -0.0494 N.ar    
   5 C5            -0.0439     5.6677     0.0611 C.ar    
   6 C6            -0.0077     4.3247    -0.3158 C.ar    
   7 C7             1.2400     3.5432    -0.1910 C.2     
   8 O8             1.1968     2.3284    -0.1693 O.2     
   9 N9             2.4261     4.1770    -0.1013 N.am    
  10 C10            3.5957     3.4437     0.1287 C.ar    
  11 C11            3.5202     2.0891     0.4251 C.ar    
  12 C12            5.9868     3.3429     0.2826 C.ar    
  13 C13            4.8338     4.0683     0.0553 C.ar    
  14 Cl14          -3.7001     6.8072    -0.6351 Cl      
  15 C15            4.6756     1.3673     0.6518 C.ar    
  16 C16            5.9089     1.9935     0.5837 C.ar    
  17 F17            7.0379     1.2856     0.8058 F       
  18 C18            2.4909     5.6335    -0.2446 C.3     
  19 C19            2.6206     6.2669     1.1167 C.2     
  20 O20            2.6552     5.5729     2.1051 O.2     
  21 O21            2.6975     7.6021     1.2311 O.3     
  22 C22            2.8210     8.1427     2.5730 C.3     
  23 C23            4.0936     7.6000     3.2264 C.3     
  24 C24            2.8947     9.6693     2.5031 C.3     
  25 C25            1.6047     7.7283     3.4037 C.3     
  26 H26           -1.1823     2.6910    -1.1109 H       
  27 H27           -3.2326     4.0784    -1.2905 H       
  28 H28            0.8477     6.1397     0.4466 H       
  29 H29            2.5585     1.6004     0.4787 H       
  30 H30            6.9498     3.8283     0.2256 H       
  31 H31            4.8950     5.1207    -0.1799 H       
  32 H32            4.6173     0.3139     0.8827 H       
  33 H33            3.3548     5.9006    -0.8534 H       
  34 H34            1.5816     5.9920    -0.7271 H       
  35 H35            4.9601     7.8952     2.6346 H       
  36 H36            4.1863     8.0058     4.2338 H       
  37 H37            4.0411     6.5124     3.2762 H       
  38 H38            1.9880    10.0559     2.0376 H       
  39 H39            2.9874    10.0751     3.5105 H       
  40 H40            3.7612     9.9645     1.9113 H       
  41 H41            1.5522     6.6407     3.4535 H       
  42 H42            1.6974     8.1341     4.4110 H       
  43 H43            0.6981     8.1149     2.9382 H       
@<TRIPOS>BOND
   1    1    2 ar
   2    1    6 ar
   3    1   26 1
   4    2    3 ar
   5    2   27 1
   6    3    4 ar
   7    3   14 1
   8    4    5 ar
   9    5    6 ar
  10    5   28 1
  11    6    7 1
  12    7    8 2
  13    7    9 am
  14    9   10 1
  15    9   18 1
  16   10   11 ar
  17   10   13 ar
  18   11   15 ar
  19   11   29 1
  20   12   13 ar
  21   12   16 ar
  22   12   30 1
  23   13   31 1
  24   15   16 ar
  25   15   32 1
  26   16   17 1
  27   18   19 1
  28   18   33 1
  29   18   34 1
  30   19   20 2
  31   19   21 1
  32   21   22 1
  33   22   23 1
  34   22   24 1
  35   22   25 1
  36   23   35 1
  37   23   36 1
  38   23   37 1
  39   24   38 1
  40   24   39 1
  41   24   40 1
  42   25   41 1
  43   25   42 1
  44   25   43 1

#	End of record

