#	Name: ASD03091490
#	Creating user name:	WinNT
#	Creation time:	15. 06. 2019 20:30

#	Modifying user name:	WinNT
#	Modification time:	15. 06. 2019 20:30

#	Program:	/corina/corina34_cracker 3.40 0067  02.08.2006

@<TRIPOS>MOLECULE
ASD03091490
  36   38    0    0    0
SMALL
NO_CHARGES


@<TRIPOS>ATOM
   1 N1            -0.0163     1.3523     0.0095 N.pl3   
   2 C2             0.0021    -0.0041     0.0020 C.2     
   3 C3             1.1379    -0.7091     0.2664 C.2     
   4 C4             2.3786     0.0269     0.5584 C.2     
   5 C5             2.3734     1.4687     0.2771 C.ar    
   6 C6             3.5464     2.2358     0.2734 C.ar    
   7 N7             3.4823     3.5322     0.0075 N.ar    
   8 C8             2.3380     4.1398    -0.2578 C.ar    
   9 C9             1.1413     3.4584    -0.2714 C.ar    
  10 C10            1.1399     2.0905     0.0024 C.ar    
  11 N11            4.7655     1.6421     0.5465 N.pl3   
  12 O12            3.3628    -0.5329     1.0121 O.2     
  13 C13            1.1240    -2.1921     0.2605 C.ar    
  14 C14            0.8701    -2.8835    -0.9230 C.ar    
  15 C15            0.8578    -4.2628    -0.9251 C.ar    
  16 C16            1.0980    -4.9623     0.2495 C.ar    
  17 C17            1.3512    -4.2768     1.4296 C.ar    
  18 C18            1.3706    -2.8976     1.4373 C.ar    
  19 O19            1.0848    -6.3214     0.2442 O.3     
  20 C20            1.3398    -6.9775     1.4878 C.3     
  21 C21            1.2839    -8.4930     1.2857 C.3     
  22 H22           -0.8701     1.8127     0.0160 H       
  23 H23           -0.9090    -0.5402    -0.2193 H       
  24 H24            2.3420     5.1989    -0.4690 H       
  25 H25            0.2183     3.9750    -0.4898 H       
  26 H26            4.8099     0.6929     0.7412 H       
  27 H27            5.5760     2.1750     0.5434 H       
  28 H28            0.6827    -2.3399    -1.8372 H       
  29 H29            0.6607    -4.7991    -1.8416 H       
  30 H30            1.5374    -4.8239     2.3420 H       
  31 H31            1.5721    -2.3648     2.3549 H       
  32 H32            2.3280    -6.6956     1.8514 H       
  33 H33            0.5860    -6.6801     2.2168 H       
  34 H34            0.2957    -8.7749     0.9222 H       
  35 H35            2.0377    -8.7904     0.5567 H       
  36 H36            1.4784    -8.9935     2.2343 H       
@<TRIPOS>BOND
   1    1    2 1
   2    1   10 1
   3    1   22 1
   4    2    3 2
   5    2   23 1
   6    3    4 1
   7    3   13 1
   8    4    5 1
   9    4   12 2
  10    5    6 ar
  11    5   10 ar
  12    6    7 ar
  13    6   11 1
  14    7    8 ar
  15    8    9 ar
  16    8   24 1
  17    9   10 ar
  18    9   25 1
  19   11   26 1
  20   11   27 1
  21   13   14 ar
  22   13   18 ar
  23   14   15 ar
  24   14   28 1
  25   15   16 ar
  26   15   29 1
  27   16   17 ar
  28   16   19 1
  29   17   18 ar
  30   17   30 1
  31   18   31 1
  32   19   20 1
  33   20   21 1
  34   20   32 1
  35   20   33 1
  36   21   34 1
  37   21   35 1
  38   21   36 1

#	End of record

