#	Name: ASD01230478
#	Creating user name:	WinNT
#	Creation time:	15. 06. 2019 19:14

#	Modifying user name:	WinNT
#	Modification time:	15. 06. 2019 19:14

#	Program:	/corina/corina34_cracker 3.40 0067  02.08.2006

@<TRIPOS>MOLECULE
ASD01230478
  45   48    0    0    0
SMALL
NO_CHARGES


@<TRIPOS>ATOM
   1 S1            -1.6214     2.7527     1.5544 S.o2    
   2 N2            -1.3525     1.2757     0.8760 N.am    
   3 C3            -0.2279     0.8821     0.4270 C.2     
   4 N4             0.9284     1.6181     0.4817 N.pl3   
   5 C5             1.1091     2.6847     1.4601 C.3     
   6 C6            -0.0650     3.6616     1.3697 C.3     
   7 C7            -0.0961    -0.4913    -0.2111 C.3     
   8 C8             1.2812    -1.0402     0.1695 C.3     
   9 C9             2.3967    -0.1596    -0.3774 C.3     
  10 C10            1.9797     1.3017    -0.4909 C.3     
  11 C11           -1.1745    -1.4050     0.3117 C.ar    
  12 C12           -2.0847    -1.9694    -0.5628 C.ar    
  13 C13           -3.0738    -2.8076    -0.0863 C.ar    
  14 C14           -3.1535    -3.0831     1.2713 C.ar    
  15 C15           -2.2388    -2.5155     2.1468 C.ar    
  16 C16           -1.2484    -1.6821     1.6644 C.ar    
  17 O17           -4.1259    -3.9070     1.7427 O.3     
  18 C18           -4.9317    -4.5248     0.8397 C.ar    
  19 C19           -4.5690    -5.7560     0.3126 C.ar    
  20 C20           -5.3906    -6.3821    -0.6059 C.ar    
  21 C21           -6.5740    -5.7815    -0.9993 C.ar    
  22 C22           -6.9364    -4.5547    -0.4754 C.ar    
  23 C23           -6.1213    -3.9280     0.4476 C.ar    
  24 Cl24          -4.9379    -7.9222    -1.2667 Cl      
  25 O25           -2.6321     3.3298     0.7390 O.2     
  26 O26           -1.8680     2.4654     2.9240 O.2     
  27 H27            1.1493     2.2563     2.4616 H       
  28 H28            2.0392     3.2140     1.2533 H       
  29 H29           -0.0485     4.1609     0.4010 H       
  30 H30            0.0184     4.4044     2.1630 H       
  31 H31           -0.1746    -0.4057    -1.2949 H       
  32 H32            1.3607    -1.0837     1.2557 H       
  33 H33            1.3892    -2.0462    -0.2359 H       
  34 H34            3.2593    -0.2302     0.2852 H       
  35 H35            2.6816    -0.5231    -1.3648 H       
  36 H36            1.6066     1.4915    -1.4973 H       
  37 H37            2.8450     1.9375    -0.3037 H       
  38 H38           -2.0225    -1.7544    -1.6194 H       
  39 H39           -3.7848    -3.2479    -0.7698 H       
  40 H40           -2.2989    -2.7280     3.2040 H       
  41 H41           -0.5337    -1.2432     2.3448 H       
  42 H42           -3.6455    -6.2244     0.6193 H       
  43 H43           -7.2149    -6.2718    -1.7170 H       
  44 H44           -7.8599    -4.0877    -0.7845 H       
  45 H45           -6.4079    -2.9720     0.8602 H       
@<TRIPOS>BOND
   1    1    2 am
   2    1    6 1
   3    1   25 2
   4    1   26 2
   5    2    3 2
   6    3    4 1
   7    3    7 1
   8    4    5 1
   9    4   10 1
  10    5    6 1
  11    5   27 1
  12    5   28 1
  13    6   29 1
  14    6   30 1
  15    7    8 1
  16    7   11 1
  17    7   31 1
  18    8    9 1
  19    8   32 1
  20    8   33 1
  21    9   10 1
  22    9   34 1
  23    9   35 1
  24   10   36 1
  25   10   37 1
  26   11   12 ar
  27   11   16 ar
  28   12   13 ar
  29   12   38 1
  30   13   14 ar
  31   13   39 1
  32   14   15 ar
  33   14   17 1
  34   15   16 ar
  35   15   40 1
  36   16   41 1
  37   17   18 1
  38   18   19 ar
  39   18   23 ar
  40   19   20 ar
  41   19   42 1
  42   20   21 ar
  43   20   24 1
  44   21   22 ar
  45   21   43 1
  46   22   23 ar
  47   22   44 1
  48   23   45 1

#	End of record

