#	Name: ASD03082060
#	Creating user name:	WinNT
#	Creation time:	15. 06. 2019 20:27

#	Modifying user name:	WinNT
#	Modification time:	15. 06. 2019 20:27

#	Program:	/corina/corina34_cracker 3.40 0067  02.08.2006

@<TRIPOS>MOLECULE
ASD03082060
  74   77    0    0    0
SMALL
NO_CHARGES


@<TRIPOS>ATOM
   1 C1            -0.0187     1.5261     0.0104 C.3     
   2 C2             0.0021    -0.0041     0.0020 C.3     
   3 N3             0.7064    -0.4787    -1.1959 N.3     
   4 C4             2.1034    -0.0262    -1.2048 C.3     
   5 C5             2.1454     1.5033    -1.2324 C.3     
   6 C6             1.4196     2.0513    -0.0005 C.3     
   7 C7             0.6260    -1.9412    -1.3090 C.3     
   8 C8            -0.8267    -2.3547    -1.5531 C.3     
   9 C9             3.6009     1.9747    -1.2194 C.3     
  10 C10           -0.9104    -3.8779    -1.6709 C.3     
  11 C11           -2.3631    -4.2914    -1.9150 C.3     
  12 O12           -2.4413    -5.7140    -2.0250 O.3     
  13 C13           -3.6711    -6.2492    -2.2444 C.ar    
  14 C14           -3.8199    -7.6235    -2.3616 C.ar    
  15 C15           -5.0710    -8.1651    -2.5847 C.ar    
  16 C16           -6.1744    -7.3386    -2.6912 C.ar    
  17 C17           -6.0286    -5.9686    -2.5752 C.ar    
  18 C18           -4.7805    -5.4225    -2.3460 C.ar    
  19 C19            3.6456     3.4964    -1.3726 C.3     
  20 C20            5.0792     3.9606    -1.3599 C.2     
  21 C21            5.3893     5.3897    -1.4925 C.ar    
  22 O22            5.9769     3.1538    -1.2401 O.2     
  23 C23            4.3573     6.3245    -1.6310 C.ar    
  24 C24            4.6561     7.6636    -1.7550 C.ar    
  25 C25            5.9742     8.0908    -1.7434 C.ar    
  26 C26            7.0040     7.1805    -1.6075 C.ar    
  27 C27            6.7243     5.8284    -1.4755 C.ar    
  28 N28            7.7636     4.9074    -1.3376 N.am    
  29 C29            8.2595     4.5474    -0.1474 C.2     
  30 C30            9.3688     3.5393    -0.3545 C.3     
  31 C31            9.4285     3.3773    -1.8871 C.3     
  32 C32            8.3429     4.3067    -2.3845 C.2     
  33 O33            7.8804     4.9635     0.9262 O.2     
  34 O34            8.0492     4.4846    -3.5470 O.2     
  35 C35           10.6955     4.0807     0.1819 C.3     
  36 C36           -7.5381    -7.9321    -2.9345 C.3     
  37 F37           -8.1532    -8.2058    -1.7082 F       
  38 F38           -8.3200    -7.0236    -3.6559 F       
  39 F39           -7.4070    -9.1178    -3.6654 F       
  40 H40           -0.5449     1.8878    -0.8730 H       
  41 H41           -0.5279     1.8782     0.9076 H       
  42 H42            0.5163    -0.3652     0.8927 H       
  43 H43           -1.0206    -0.3811    -0.0047 H       
  44 H44            2.6078    -0.3873    -0.3085 H       
  45 H45            2.6069    -0.4194    -2.0879 H       
  46 H46            1.6532     1.8646    -2.1353 H       
  47 H47            1.4094     3.1406    -0.0383 H       
  48 H48            1.9345     1.7220     0.9021 H       
  49 H49            1.2439    -2.2756    -2.1424 H       
  50 H50            0.9834    -2.3972    -0.3858 H       
  51 H51           -1.4446    -2.0203    -0.7198 H       
  52 H52           -1.1841    -1.8987    -2.4764 H       
  53 H53            4.0664     1.6907    -0.2756 H       
  54 H54            4.1405     1.5104    -2.0449 H       
  55 H55           -0.2925    -4.2123    -2.5043 H       
  56 H56           -0.5530    -4.3339    -0.7477 H       
  57 H57           -2.9810    -3.9570    -1.0816 H       
  58 H58           -2.7205    -3.8354    -2.8382 H       
  59 H59           -2.9583    -8.2695    -2.2789 H       
  60 H60           -5.1874    -9.2349    -2.6764 H       
  61 H61           -6.8919    -5.3251    -2.6595 H       
  62 H62           -4.6672    -4.3523    -2.2554 H       
  63 H63            3.1800     3.7803    -2.3164 H       
  64 H64            3.1059     3.9606    -0.5472 H       
  65 H65            3.3283     5.9967    -1.6410 H       
  66 H66            3.8588     8.3842    -1.8622 H       
  67 H67            6.1979     9.1428    -1.8416 H       
  68 H68            8.0284     7.5225    -1.5994 H       
  69 H69            9.1194     2.5912     0.1220 H       
  70 H70           10.4034     3.6824    -2.2674 H       
  71 H71            9.2088     2.3487    -2.1730 H       
  72 H72           10.6075     4.2618     1.2531 H       
  73 H73           11.4853     3.3518     0.0002 H       
  74 H74           10.9388     5.0141    -0.3257 H       
@<TRIPOS>BOND
   1    1    2 1
   2    1    6 1
   3    1   40 1
   4    1   41 1
   5    2    3 1
   6    2   42 1
   7    2   43 1
   8    3    4 1
   9    3    7 1
  10    4    5 1
  11    4   44 1
  12    4   45 1
  13    5    6 1
  14    5    9 1
  15    5   46 1
  16    6   47 1
  17    6   48 1
  18    7    8 1
  19    7   49 1
  20    7   50 1
  21    8   10 1
  22    8   51 1
  23    8   52 1
  24    9   19 1
  25    9   53 1
  26    9   54 1
  27   10   11 1
  28   10   55 1
  29   10   56 1
  30   11   12 1
  31   11   57 1
  32   11   58 1
  33   12   13 1
  34   13   14 ar
  35   13   18 ar
  36   14   15 ar
  37   14   59 1
  38   15   16 ar
  39   15   60 1
  40   16   17 ar
  41   16   36 1
  42   17   18 ar
  43   17   61 1
  44   18   62 1
  45   19   20 1
  46   19   63 1
  47   19   64 1
  48   20   21 1
  49   20   22 2
  50   21   23 ar
  51   21   27 ar
  52   23   24 ar
  53   23   65 1
  54   24   25 ar
  55   24   66 1
  56   25   26 ar
  57   25   67 1
  58   26   27 ar
  59   26   68 1
  60   27   28 1
  61   28   29 am
  62   28   32 am
  63   29   30 1
  64   29   33 2
  65   30   31 1
  66   30   35 1
  67   30   69 1
  68   31   32 1
  69   31   70 1
  70   31   71 1
  71   32   34 2
  72   35   72 1
  73   35   73 1
  74   35   74 1
  75   36   37 1
  76   36   38 1
  77   36   39 1

#	End of record

