#	Name: ASD09740339
#	Creating user name:	WinNT
#	Creation time:	15. 06. 2019 21:23

#	Modifying user name:	WinNT
#	Modification time:	15. 06. 2019 21:23

#	Program:	/corina/corina34_cracker 3.40 0067  02.08.2006

@<TRIPOS>MOLECULE
ASD09740339
  63   66    0    0    0
SMALL
NO_CHARGES


@<TRIPOS>ATOM
   1 C1            -0.0013     1.2573     0.6046 C.ar    
   2 C2            -0.0110    -0.1394     0.5743 C.ar    
   3 C3             1.1873    -0.8457     0.6947 C.ar    
   4 C4             2.3770    -0.1647     0.8436 C.ar    
   5 C5             2.3869     1.2223     0.8741 C.ar    
   6 C6             1.1942     1.9336     0.7535 C.ar    
   7 O7             3.5616     1.8888     1.0219 O.3     
   8 C8             4.7459     1.0978     1.1399 C.3     
   9 C9            -0.0517     3.9570     0.6543 C.3     
  10 O10            1.2072     3.2932     0.7834 O.3     
  11 C11            5.9592     2.0165     1.2974 C.3     
  12 C12            0.1620     5.4710     0.7102 C.3     
  13 C13           -1.2863    -0.8673     0.4158 C.2     
  14 N14           -1.4436    -2.1774     0.3707 N.2     
  15 C15           -2.7702    -2.3764     0.2180 C.2     
  16 N16           -3.3399    -1.1979     0.1788 N.2     
  17 O17           -2.5077    -0.3236     0.2958 O.3     
  18 C18           -3.4550    -3.6865     0.1134 C.ar    
  19 C19           -2.7155    -4.8604     0.0441 C.ar    
  20 C20           -3.3568    -6.0837    -0.0536 C.ar    
  21 C21           -4.7336    -6.1595    -0.0843 C.ar    
  22 C22           -5.4994    -5.0006    -0.0171 C.ar    
  23 C23           -4.8595    -3.7530     0.0892 C.ar    
  24 N24           -6.8560    -4.7612    -0.0252 N.pl3   
  25 C25           -7.0910    -3.4174     0.0653 C.2     
  26 C26           -5.9250    -2.7531     0.1383 C.2     
  27 C27           -5.7491    -1.2605     0.2489 C.3     
  28 N28           -7.0667    -0.6178     0.3427 N.3     
  29 C29           -6.9326     0.8331     0.5301 C.3     
  30 C30           -6.2364     1.4425    -0.6884 C.3     
  31 C31           -8.3204     1.4571     0.6897 C.3     
  32 O32           -8.1900     2.8684     0.8720 O.3     
  33 C33           -6.1014     1.1106     1.7843 C.3     
  34 H34           -0.9257     1.8071     0.5073 H       
  35 H35            1.1823    -1.9254     0.6716 H       
  36 H36            3.3032    -0.7122     0.9370 H       
  37 H37            4.6648     0.4501     2.0128 H       
  38 H38            4.8659     0.4876     0.2447 H       
  39 H39           -0.5075     3.6893    -0.2990 H       
  40 H40           -0.7083     3.6524     1.4693 H       
  41 H41            6.8625     1.4131     1.3873 H       
  42 H42            6.0403     2.6641     0.4244 H       
  43 H43            5.8391     2.6266     2.1926 H       
  44 H44            0.6178     5.7386     1.6634 H       
  45 H45            0.8186     5.7755    -0.1048 H       
  46 H46           -0.7983     5.9773     0.6117 H       
  47 H47           -1.6366    -4.8187     0.0662 H       
  48 H48           -2.7716    -6.9898    -0.1068 H       
  49 H49           -5.2183    -7.1215    -0.1612 H       
  50 H50           -7.5421    -5.4442    -0.0863 H       
  51 H51           -8.0684    -2.9582     0.0797 H       
  52 H52           -5.1673    -1.0283     1.1409 H       
  53 H53           -5.2260    -0.8899    -0.6327 H       
  54 H54           -7.6297    -0.8271    -0.4681 H       
  55 H55           -6.8605     1.3028    -1.5710 H       
  56 H56           -6.0772     2.5077    -0.5208 H       
  57 H57           -5.2755     0.9512    -0.8414 H       
  58 H58           -8.9126     1.2594    -0.2038 H       
  59 H59           -8.8164     1.0229     1.5578 H       
  60 H60           -9.0325     3.3305     0.9801 H       
  61 H61           -5.1127     0.6660     1.6706 H       
  62 H62           -6.0019     2.1871     1.9233 H       
  63 H63           -6.5973     0.6764     2.6523 H       
@<TRIPOS>BOND
   1    1    2 ar
   2    1    6 ar
   3    1   34 1
   4    2    3 ar
   5    2   13 1
   6    3    4 ar
   7    3   35 1
   8    4    5 ar
   9    4   36 1
  10    5    6 ar
  11    5    7 1
  12    6   10 1
  13    7    8 1
  14    8   11 1
  15    8   37 1
  16    8   38 1
  17    9   12 1
  18    9   10 1
  19    9   39 1
  20    9   40 1
  21   11   41 1
  22   11   42 1
  23   11   43 1
  24   12   44 1
  25   12   45 1
  26   12   46 1
  27   13   14 2
  28   13   17 1
  29   14   15 1
  30   15   16 2
  31   15   18 1
  32   16   17 1
  33   18   19 ar
  34   18   23 ar
  35   19   20 ar
  36   19   47 1
  37   20   21 ar
  38   20   48 1
  39   21   22 ar
  40   21   49 1
  41   22   23 ar
  42   22   24 1
  43   23   26 1
  44   24   25 1
  45   24   50 1
  46   25   26 2
  47   25   51 1
  48   26   27 1
  49   27   28 1
  50   27   52 1
  51   27   53 1
  52   28   29 1
  53   28   54 1
  54   29   30 1
  55   29   31 1
  56   29   33 1
  57   30   55 1
  58   30   56 1
  59   30   57 1
  60   31   32 1
  61   31   58 1
  62   31   59 1
  63   32   60 1
  64   33   61 1
  65   33   62 1
  66   33   63 1

#	End of record

