#	Name: ASD04590810
#	Creating user name:	WinNT
#	Creation time:	15. 06. 2019 20:51

#	Modifying user name:	WinNT
#	Modification time:	15. 06. 2019 20:51

#	Program:	/corina/corina34_cracker 3.40 0067  02.08.2006

@<TRIPOS>MOLECULE
ASD04590810
  55   60    0    0    0
SMALL
NO_CHARGES


@<TRIPOS>ATOM
   1 N1            -0.0170     1.3231    -0.0113 N.ar    
   2 C2             0.0017    -0.0035    -0.0049 C.ar    
   3 N3             1.1298    -0.6949    -0.0118 N.ar    
   4 C4             2.3049    -0.0730    -0.0260 C.ar    
   5 C5             2.3189     1.3365    -0.0335 C.ar    
   6 C6             1.1072     2.0201    -0.0254 C.ar    
   7 N7             3.6030    -0.5197    -0.0361 N.pl3   
   8 C8             4.4823     0.5493    -0.0502 C.ar    
   9 C9             3.7312     1.7383    -0.0492 C.ar    
  10 C10            5.8680     0.6415    -0.0644 C.ar    
  11 N11            6.4613     1.8177    -0.0767 N.ar    
  12 C12            5.7851     2.9530    -0.0762 C.ar    
  13 C13            4.4065     2.9582    -0.0626 C.ar    
  14 N14           -1.2022    -0.6889     0.0098 N.pl3   
  15 C15           -2.3994     0.0103     0.1301 C.ar    
  16 N16           -2.3852     1.3201     0.3310 N.ar    
  17 N17           -3.4637     2.0062     0.4475 N.ar    
  18 C18           -4.6661     1.4483     0.3743 C.ar    
  19 C19           -4.7806     0.0680     0.1636 C.ar    
  20 C20           -3.6164    -0.6667     0.0334 C.ar    
  21 C21           -5.8790     2.2798     0.5150 C.2     
  22 C22           -5.7180     3.7574     0.7407 C.3     
  23 C23           -7.0405     4.4710     0.4490 C.3     
  24 N24           -8.1192     3.7668     1.1615 N.3     
  25 C25           -8.3507     2.4481     0.5585 C.3     
  26 C26           -7.0558     1.6981     0.4325 C.2     
  27 C27            4.0016    -1.9294    -0.0320 C.3     
  28 C28            3.4612    -2.6263     1.2289 C.3     
  29 C29            2.5279    -3.7545     0.7431 C.3     
  30 C30            3.0198    -4.0625    -0.6930 C.3     
  31 C31            3.3779    -2.6584    -1.2401 C.3     
  32 H32            1.0849     3.0999    -0.0313 H       
  33 H33            6.4644    -0.2588    -0.0651 H       
  34 H34            6.3205     3.8909    -0.0862 H       
  35 H35            3.8598     3.8897    -0.0626 H       
  36 H36           -1.2106    -1.6560    -0.0636 H       
  37 H37           -5.7485    -0.4071     0.1011 H       
  38 H38           -3.6476    -1.7337    -0.1307 H       
  39 H39           -5.4299     3.9368     1.7765 H       
  40 H40           -4.9438     4.1433     0.0776 H       
  41 H41           -6.9845     5.5025     0.7969 H       
  42 H42           -7.2374     4.4534    -0.6230 H       
  43 H43           -7.9085     3.6829     2.1447 H       
  44 H44           -9.0397     1.8809     1.1844 H       
  45 H45           -8.7880     2.5757    -0.4318 H       
  46 H46           -7.0925     0.6305     0.2737 H       
  47 H47            5.0881    -2.0100    -0.0666 H       
  48 H48            4.2853    -3.0460     1.8058 H       
  49 H49            2.9023    -1.9157     1.8378 H       
  50 H50            2.6303    -4.6344     1.3783 H       
  51 H51            1.4929    -3.4130     0.7268 H       
  52 H52            3.9005    -4.7044    -0.6703 H       
  53 H53            2.2248    -4.5164    -1.2846 H       
  54 H54            2.4802    -2.1398    -1.5767 H       
  55 H55            4.1006    -2.7383    -2.0521 H       
@<TRIPOS>BOND
   1    1    2 ar
   2    1    6 ar
   3    2    3 ar
   4    2   14 1
   5    3    4 ar
   6    4    5 ar
   7    4    7 1
   8    5    6 ar
   9    5    9 1
  10    6   32 1
  11    7    8 1
  12    7   27 1
  13    8    9 ar
  14    8   10 ar
  15    9   13 ar
  16   10   11 ar
  17   10   33 1
  18   11   12 ar
  19   12   13 ar
  20   12   34 1
  21   13   35 1
  22   14   15 1
  23   14   36 1
  24   15   16 ar
  25   15   20 ar
  26   16   17 ar
  27   17   18 ar
  28   18   19 ar
  29   18   21 1
  30   19   20 ar
  31   19   37 1
  32   20   38 1
  33   21   22 1
  34   21   26 2
  35   22   23 1
  36   22   39 1
  37   22   40 1
  38   23   24 1
  39   23   41 1
  40   23   42 1
  41   24   25 1
  42   24   43 1
  43   25   26 1
  44   25   44 1
  45   25   45 1
  46   26   46 1
  47   27   28 1
  48   27   31 1
  49   27   47 1
  50   28   29 1
  51   28   48 1
  52   28   49 1
  53   29   30 1
  54   29   50 1
  55   29   51 1
  56   30   31 1
  57   30   52 1
  58   30   53 1
  59   31   54 1
  60   31   55 1

#	End of record

