#	Name: ASD01810814
#	Creating user name:	WinNT
#	Creation time:	15. 06. 2019 19:25

#	Modifying user name:	WinNT
#	Modification time:	15. 06. 2019 19:25

#	Program:	/corina/corina34_cracker 3.40 0067  02.08.2006

@<TRIPOS>MOLECULE
ASD01810814
  38   39    0    0    0
SMALL
NO_CHARGES


@<TRIPOS>ATOM
   1 C1            -0.0261     1.4685    -0.1843 C.2     
   2 C2            -0.0017    -0.0059    -0.0919 C.ar    
   3 C3             1.2166    -0.6895    -0.1217 C.ar    
   4 C4             1.2401    -2.0668    -0.0360 C.ar    
   5 C5             0.0615    -2.7780     0.0801 C.ar    
   6 C6            -1.1620    -2.1074     0.1115 C.ar    
   7 C7            -1.1936    -0.7180     0.0309 C.ar    
   8 O8             1.0148     2.0944    -0.1820 O.2     
   9 O9            -1.2026     2.1182    -0.2766 O.3     
  10 C10            2.5071     0.0784    -0.2482 C.3     
  11 C11           -2.4240    -2.8721     0.2361 C.2     
  12 S12           -2.8145    -4.1253    -0.9394 S.3     
  13 C13           -4.4102    -4.6797    -0.2894 C.3     
  14 N14           -3.2461    -2.6182     1.2154 N.2     
  15 C15            0.0969    -4.2817     0.1726 C.3     
  16 C16            0.6377    -4.9642    -1.0949 C.3     
  17 C17            1.3754    -5.9380    -0.1609 C.3     
  18 C18            1.3382    -4.8250     0.8997 C.3     
  19 C19           -1.1506     3.5666    -0.3639 C.3     
  20 H20            2.1840    -2.5910    -0.0602 H       
  21 H21           -2.1377    -0.1945     0.0593 H       
  22 H22            2.8168     0.4328     0.7349 H       
  23 H23            3.2785    -0.5727    -0.6593 H       
  24 H24            2.3593     0.9305    -0.9117 H       
  25 H25           -4.2792    -5.0511     0.7269 H       
  26 H26           -5.1103    -3.8443    -0.2836 H       
  27 H27           -4.8020    -5.4777    -0.9202 H       
  28 H28           -4.0727    -3.1191     1.2970 H       
  29 H29           -0.8411    -4.7060     0.5306 H       
  30 H30           -0.1355    -5.4395    -1.6986 H       
  31 H31            1.3044    -4.3316    -1.6809 H       
  32 H32            0.7876    -6.8160     0.1068 H       
  33 H33            2.3818    -6.1875    -0.4970 H       
  34 H34            2.1965    -4.1544     0.8591 H       
  35 H35            1.1306    -5.1879     1.9063 H       
  36 H36           -2.1636     3.9630    -0.4333 H       
  37 H37           -0.6639     3.9670     0.5254 H       
  38 H38           -0.5853     3.8572    -1.2494 H       
@<TRIPOS>BOND
   1    1    2 1
   2    1    8 2
   3    1    9 1
   4    2    3 ar
   5    2    7 ar
   6    3    4 ar
   7    3   10 1
   8    4    5 ar
   9    4   20 1
  10    5    6 ar
  11    5   15 1
  12    6    7 ar
  13    6   11 1
  14    7   21 1
  15    9   19 1
  16   10   22 1
  17   10   23 1
  18   10   24 1
  19   11   12 1
  20   11   14 2
  21   12   13 1
  22   13   25 1
  23   13   26 1
  24   13   27 1
  25   14   28 1
  26   15   16 1
  27   15   18 1
  28   15   29 1
  29   16   17 1
  30   16   30 1
  31   16   31 1
  32   17   18 1
  33   17   32 1
  34   17   33 1
  35   18   34 1
  36   18   35 1
  37   19   36 1
  38   19   37 1
  39   19   38 1

#	End of record

