#	Name: ASD01912391
#	Creating user name:	WinNT
#	Creation time:	15. 06. 2019 19:59

#	Modifying user name:	WinNT
#	Modification time:	15. 06. 2019 19:59

#	Program:	/corina/corina34_cracker 3.40 0067  02.08.2006

@<TRIPOS>MOLECULE
ASD01912391
  45   47    0    0    0
SMALL
NO_CHARGES


@<TRIPOS>ATOM
   1 C1             0.1434     1.1227    -0.8036 C.ar    
   2 C2            -0.0537     0.1098     0.1369 C.ar    
   3 C3             1.0208    -0.2843     0.9486 C.ar    
   4 C4             2.2269     0.3431     0.7858 C.ar    
   5 C5             2.3517     1.3462    -0.1729 C.ar    
   6 N6             1.3205     1.7001    -0.9275 N.ar    
   7 C7            -1.3340    -0.5173     0.2714 C.1     
   8 N8            -2.3497    -1.0148     0.3782 N.1     
   9 N9             3.5711     1.9833    -0.3403 N.3     
  10 C10            3.3835     3.4085    -0.6395 C.3     
  11 C11            4.7376     4.1245    -0.5766 C.3     
  12 C12            5.7017     3.3963    -1.4896 C.2     
  13 C13            5.7972     1.8907    -1.3585 C.3     
  14 C14            4.3758     1.3167    -1.3717 C.3     
  15 C15            6.4408     4.0582    -2.3788 C.2     
  16 C16            7.3450     3.3456    -3.2304 C.1     
  17 C17            8.0863     2.7614    -3.9286 C.1     
  18 C18            8.9905     2.0488    -4.7803 C.ar    
  19 C19            9.7637     2.7481    -5.7115 C.ar    
  20 C20           10.6318     2.0449    -6.5262 C.ar    
  21 C21           10.7019     0.6649    -6.3868 C.ar    
  22 C22            9.9086     0.0356    -5.4449 C.ar    
  23 N23            9.0927     0.7269    -4.6760 N.ar    
  24 C24            9.9831    -1.4617    -5.2920 C.3     
  25 C25            3.4082    -0.0475     1.6360 C.3     
  26 H26           -0.6745     1.4320    -1.4374 H       
  27 H27            0.8992    -1.0646     1.6854 H       
  28 H28            2.9605     3.5177    -1.6381 H       
  29 H29            2.7058     3.8475     0.0926 H       
  30 H30            4.6237     5.1560    -0.9098 H       
  31 H31            5.1153     4.1073     0.4457 H       
  32 H32            6.3656     1.4842    -2.1951 H       
  33 H33            6.2887     1.6339    -0.4201 H       
  34 H34            4.4140     0.2466    -1.1678 H       
  35 H35            3.9249     1.4848    -2.3497 H       
  36 H36            6.3581     5.1322    -2.4573 H       
  37 H37            9.6840     3.8220    -5.7937 H       
  38 H38           11.2418     2.5575    -7.2553 H       
  39 H39           11.3702     0.0880    -7.0089 H       
  40 H40           10.7458    -1.7142    -4.5553 H       
  41 H41            9.0170    -1.8415    -4.9596 H       
  42 H42           10.2405    -1.9125    -6.2505 H       
  43 H43            4.0153    -0.7778     1.1011 H       
  44 H44            4.0088     0.8363     1.8515 H       
  45 H45            3.0550    -0.4834     2.5705 H       
@<TRIPOS>BOND
   1    1    2 ar
   2    1    6 ar
   3    1   26 1
   4    2    3 ar
   5    2    7 1
   6    3    4 ar
   7    3   27 1
   8    4    5 ar
   9    4   25 1
  10    5    6 ar
  11    5    9 1
  12    7    8 3
  13    9   10 1
  14    9   14 1
  15   10   11 1
  16   10   28 1
  17   10   29 1
  18   11   12 1
  19   11   30 1
  20   11   31 1
  21   12   13 1
  22   12   15 2
  23   13   14 1
  24   13   32 1
  25   13   33 1
  26   14   34 1
  27   14   35 1
  28   15   16 1
  29   15   36 1
  30   16   17 3
  31   17   18 1
  32   18   19 ar
  33   18   23 ar
  34   19   20 ar
  35   19   37 1
  36   20   21 ar
  37   20   38 1
  38   21   22 ar
  39   21   39 1
  40   22   23 ar
  41   22   24 1
  42   24   40 1
  43   24   41 1
  44   24   42 1
  45   25   43 1
  46   25   44 1
  47   25   45 1

#	End of record

