#	Name: ASD01884156
#	Creating user name:	WinNT
#	Creation time:	15. 06. 2019 19:47

#	Modifying user name:	WinNT
#	Modification time:	15. 06. 2019 19:47

#	Program:	/corina/corina34_cracker 3.40 0067  02.08.2006

@<TRIPOS>MOLECULE
ASD01884156
  39   41    0    0    0
SMALL
NO_CHARGES


@<TRIPOS>ATOM
   1 C1            -0.0168     1.3897     0.0097 C.ar    
   2 C2             0.0021    -0.0041     0.0020 C.ar    
   3 C3            -1.2175    -0.6819     0.0105 C.ar    
   4 C4            -2.3885     0.0452     0.0261 C.ar    
   5 N5            -2.3659     1.3653     0.0325 N.ar    
   6 C6            -1.2328     2.0438     0.0306 C.ar    
   7 Cl7           -1.2726     3.7793     0.0394 Cl      
   8 N8             1.2063    -0.7016    -0.0142 N.3     
   9 C9             1.3304    -1.5648     1.1673 C.3     
  10 C10            2.7214    -2.2024     1.1910 C.3     
  11 C11            2.9238    -3.0218    -0.0865 C.3     
  12 C12            2.7416    -2.1097    -1.3028 C.3     
  13 C13            1.3500    -1.4748    -1.2543 C.3     
  14 C14            1.2715     2.1715     0.0016 C.3     
  15 F15            1.6575     2.4205    -1.3198 F       
  16 F16            1.0839     3.3864     0.6694 F       
  17 F17            2.2690     1.4334     0.6476 F       
  18 C18            4.3141    -3.6033    -0.0969 C.ar    
  19 C19            4.4898    -4.9736    -0.1430 C.ar    
  20 C20            5.7651    -5.5070    -0.1525 C.ar    
  21 C21            6.8646    -4.6700    -0.1162 C.ar    
  22 C22            6.6889    -3.2996    -0.0709 C.ar    
  23 C23            5.4137    -2.7661    -0.0659 C.ar    
  24 H24           -1.2437    -1.7616     0.0046 H       
  25 H25           -3.3367    -0.4717     0.0327 H       
  26 H26            1.1885    -0.9690     2.0689 H       
  27 H27            0.5728    -2.3475     1.1264 H       
  28 H28            3.4791    -1.4207     1.2459 H       
  29 H29            2.8077    -2.8552     2.0596 H       
  30 H30            2.1907    -3.8276    -0.1224 H       
  31 H31            3.4996    -1.3266    -1.2872 H       
  32 H32            2.8423    -2.6963    -2.2159 H       
  33 H33            0.5923    -2.2579    -1.2838 H       
  34 H34            1.2223    -0.8136    -2.1114 H       
  35 H35            3.6308    -5.6276    -0.1714 H       
  36 H36            5.9024    -6.5777    -0.1879 H       
  37 H37            7.8610    -5.0868    -0.1229 H       
  38 H38            7.5480    -2.6457    -0.0423 H       
  39 H39            5.2764    -1.6953    -0.0343 H       
@<TRIPOS>BOND
   1    1    2 ar
   2    1   14 1
   3    1    6 ar
   4    2    3 ar
   5    2    8 1
   6    3    4 ar
   7    3   24 1
   8    4    5 ar
   9    4   25 1
  10    5    6 ar
  11    6    7 1
  12    8    9 1
  13    8   13 1
  14    9   10 1
  15    9   26 1
  16    9   27 1
  17   10   11 1
  18   10   28 1
  19   10   29 1
  20   11   12 1
  21   11   18 1
  22   11   30 1
  23   12   13 1
  24   12   31 1
  25   12   32 1
  26   13   33 1
  27   13   34 1
  28   14   15 1
  29   14   16 1
  30   14   17 1
  31   18   19 ar
  32   18   23 ar
  33   19   20 ar
  34   19   35 1
  35   20   21 ar
  36   20   36 1
  37   21   22 ar
  38   21   37 1
  39   22   23 ar
  40   22   38 1
  41   23   39 1

#	End of record

