#	Name: ASD01914296
#	Creating user name:	WinNT
#	Creation time:	15. 06. 2019 20:03

#	Modifying user name:	WinNT
#	Modification time:	15. 06. 2019 20:03

#	Program:	/corina/corina34_cracker 3.40 0067  02.08.2006

@<TRIPOS>MOLECULE
ASD01914296
  36   38    0    0    0
SMALL
NO_CHARGES


@<TRIPOS>ATOM
   1 N1            -0.0169     1.3963     0.0097 N.2     
   2 N2             0.0021    -0.0041     0.0020 N.pl3   
   3 C3             1.2264     1.8294     0.0002 C.2     
   4 C4             2.0819     0.7148    -0.0140 C.2     
   5 C5             1.3049    -0.4066    -0.0126 C.2     
   6 C6             1.7880    -1.8051    -0.0243 C.ar    
   7 C7             1.6516     3.2516     0.0038 C.ar    
   8 C8             3.1573    -2.0719    -0.0383 C.ar    
   9 C9             0.6973     4.2665     0.0188 C.ar    
  10 C10            3.6038    -3.3765    -0.0492 C.ar    
  11 C11            2.6926    -4.4238    -0.0467 C.ar    
  12 C12            1.3288    -4.1622    -0.0327 C.ar    
  13 C13            0.8751    -2.8606    -0.0155 C.ar    
  14 C14            0.3437    -5.3026    -0.0301 C.3     
  15 O15            3.1362    -5.7081    -0.0584 O.3     
  16 C16            4.5514    -5.9055    -0.0729 C.3     
  17 C17            1.0981     5.5872     0.0226 C.ar    
  18 C18            2.4445     5.9039     0.0114 C.ar    
  19 C19            3.3962     4.9003    -0.0041 C.ar    
  20 C20            3.0064     3.5762    -0.0021 C.ar    
  21 H21           -0.7746    -0.5852     0.0063 H       
  22 H22            3.1615     0.7412    -0.0245 H       
  23 H23            3.8668    -1.2576    -0.0410 H       
  24 H24           -0.3542     4.0202     0.0272 H       
  25 H25            4.6637    -3.5837    -0.0601 H       
  26 H26           -0.1856    -2.6578    -0.0043 H       
  27 H27            0.1156    -5.5833     0.9982 H       
  28 H28           -0.5720    -4.9930    -0.5338 H       
  29 H29            0.7750    -6.1565    -0.5527 H       
  30 H30            4.9907    -5.4520     0.8156 H       
  31 H31            4.7692    -6.9735    -0.0812 H       
  32 H32            4.9738    -5.4416    -0.9643 H       
  33 H33            0.3592     6.3748     0.0339 H       
  34 H34            2.7539     6.9387     0.0144 H       
  35 H35            4.4461     5.1531    -0.0135 H       
  36 H36            3.7502     2.7933    -0.0141 H       
@<TRIPOS>BOND
   1    1    2 1
   2    1    3 2
   3    2    5 1
   4    2   21 1
   5    3    4 1
   6    3    7 1
   7    4    5 2
   8    4   22 1
   9    5    6 1
  10    6    8 ar
  11    6   13 ar
  12    7    9 ar
  13    7   20 ar
  14    8   10 ar
  15    8   23 1
  16    9   17 ar
  17    9   24 1
  18   10   11 ar
  19   10   25 1
  20   11   12 ar
  21   11   15 1
  22   12   13 ar
  23   12   14 1
  24   13   26 1
  25   14   27 1
  26   14   28 1
  27   14   29 1
  28   15   16 1
  29   16   30 1
  30   16   31 1
  31   16   32 1
  32   17   18 ar
  33   17   33 1
  34   18   19 ar
  35   18   34 1
  36   19   20 ar
  37   19   35 1
  38   20   36 1

#	End of record

