#	Name: ASD03731868
#	Creating user name:	WinNT
#	Creation time:	15. 06. 2019 20:46

#	Modifying user name:	WinNT
#	Modification time:	15. 06. 2019 20:46

#	Program:	/corina/corina34_cracker 3.40 0067  02.08.2006

@<TRIPOS>MOLECULE
ASD03731868
  32   33    0    0    0
SMALL
NO_CHARGES


@<TRIPOS>ATOM
   1 C1             0.3757     1.0934     1.9763 C.2     
   2 C2             0.2921    -0.2818     1.4507 C.ar    
   3 C3             1.3750    -0.8358     0.7612 C.ar    
   4 C4             1.2930    -2.1201     0.2726 C.ar    
   5 C5             0.1351    -2.8661     0.4634 C.ar    
   6 C6            -0.9438    -2.3190     1.1484 C.ar    
   7 C7            -0.8678    -1.0372     1.6454 C.ar    
   8 O8             1.3866     1.7467     1.8105 O.2     
   9 O9            -0.6711     1.6275     2.6357 O.3     
  10 C10            2.4596    -2.7182    -0.4707 C.3     
  11 C11            2.2602    -2.5228    -1.9750 C.3     
  12 O12            0.0581    -4.1313    -0.0206 O.3     
  13 C13           -1.1275    -4.7862     0.0914 C.ar    
  14 C14           -2.0818    -4.6711    -0.9094 C.ar    
  15 C15           -3.2869    -5.3380    -0.7934 C.ar    
  16 C16           -3.5418    -6.1199     0.3211 C.ar    
  17 C17           -2.5911    -6.2352     1.3192 C.ar    
  18 C18           -1.3829    -5.5749     1.2037 C.ar    
  19 Cl19          -5.0564    -6.9558     0.4657 Cl      
  20 Cl20          -4.4817    -5.1949    -2.0447 Cl      
  21 H21            2.2743    -0.2568     0.6119 H       
  22 H22           -1.8414    -2.9016     1.2942 H       
  23 H23           -1.7048    -0.6145     2.1813 H       
  24 H24           -0.5693     2.5321     2.9617 H       
  25 H25            3.3803    -2.2250    -0.1592 H       
  26 H26            2.5247    -3.7832    -0.2482 H       
  27 H27            1.3394    -3.0160    -2.2866 H       
  28 H28            2.1951    -1.4577    -2.1976 H       
  29 H29            3.1039    -2.9554    -2.5126 H       
  30 H30           -1.8832    -4.0608    -1.7780 H       
  31 H31           -2.7917    -6.8453     2.1875 H       
  32 H32           -0.6394    -5.6690     1.9814 H       
@<TRIPOS>BOND
   1    1    2 1
   2    1    8 2
   3    1    9 1
   4    2    3 ar
   5    2    7 ar
   6    3    4 ar
   7    3   21 1
   8    4    5 ar
   9    4   10 1
  10    5    6 ar
  11    5   12 1
  12    6    7 ar
  13    6   22 1
  14    7   23 1
  15    9   24 1
  16   10   11 1
  17   10   25 1
  18   10   26 1
  19   11   27 1
  20   11   28 1
  21   11   29 1
  22   12   13 1
  23   13   14 ar
  24   13   18 ar
  25   14   15 ar
  26   14   30 1
  27   15   16 ar
  28   15   20 1
  29   16   17 ar
  30   16   19 1
  31   17   18 ar
  32   17   31 1
  33   18   32 1

#	End of record

