#	Name: ASD02198195
#	Creating user name:	WinNT
#	Creation time:	15. 06. 2019 20:19

#	Modifying user name:	WinNT
#	Modification time:	15. 06. 2019 20:19

#	Program:	/corina/corina34_cracker 3.40 0067  02.08.2006

@<TRIPOS>MOLECULE
ASD02198195
  51   53    0    0    0
SMALL
NO_CHARGES


@<TRIPOS>ATOM
   1 C1            -0.0183     1.3452    -0.2900 C.2     
   2 C2             0.0097    -0.0345    -0.2521 C.2     
   3 C3            -1.1979    -0.8595    -0.3051 C.2     
   4 S4             1.5590     1.9873    -0.2100 S.3     
   5 C5             2.2777     0.3872    -0.1239 C.2     
   6 C6             1.2943    -0.5705    -0.1592 C.2     
   7 C7             3.6591     0.1250    -0.0326 C.2     
   8 C8             4.6309     1.2329    -0.1475 C.ar    
   9 O9             4.0529    -1.0160     0.1411 O.2     
  10 N10            1.5516    -1.9307    -0.1073 N.pl3   
  11 N11           -1.1626     2.0991    -0.3853 N.pl3   
  12 O12           -1.6349    -1.2299    -1.3782 O.2     
  13 C13           -1.0760     3.5611    -0.4177 C.3     
  14 C14            5.8552     1.1624     0.5210 C.ar    
  15 C15           -2.3096     4.1466    -1.1270 C.3     
  16 C16           -3.0259     5.0439    -0.0967 C.3     
  17 C17           -1.9138     5.4275     0.9110 C.3     
  18 C18           -1.0856     4.1231     1.0189 C.3     
  19 C19            6.7584     2.1966     0.4112 C.ar    
  20 C20            6.4528     3.3091    -0.3635 C.ar    
  21 C21            5.2357     3.3828    -1.0302 C.ar    
  22 C22            4.3295     2.3503    -0.9294 C.ar    
  23 O23            7.3452     4.3265    -0.4690 O.3     
  24 C24            6.9670     5.4396    -1.2814 C.3     
  25 O25           -1.8264    -1.2092     0.8359 O.3     
  26 C26           -3.0182    -2.0286     0.7076 C.3     
  27 C27           -3.5879    -2.3213     2.0971 C.3     
  28 H28            2.4655    -2.2493    -0.0429 H       
  29 H29            0.8178    -2.5645    -0.1354 H       
  30 H30           -2.0280     1.6633    -0.4311 H       
  31 H31           -0.1670     3.8697    -0.9341 H       
  32 H32            6.0933     0.2983     1.1236 H       
  33 H33           -1.9992     4.7400    -1.9871 H       
  34 H34           -2.9728     3.3429    -1.4471 H       
  35 H35           -3.4266     5.9350    -0.5800 H       
  36 H36           -3.8202     4.4906     0.4042 H       
  37 H37           -1.3031     6.2417     0.5209 H       
  38 H38           -2.3429     5.6936     1.8770 H       
  39 H39           -1.5666     3.4210     1.6999 H       
  40 H40           -0.0704     4.3421     1.3497 H       
  41 H41            7.7051     2.1429     0.9281 H       
  42 H42            5.0015     4.2491    -1.6310 H       
  43 H43            3.3840     2.4081    -1.4481 H       
  44 H44            6.7876     5.1004    -2.3017 H       
  45 H45            6.0573     5.8882    -0.8824 H       
  46 H46            7.7677     6.1792    -1.2799 H       
  47 H47           -3.7624    -1.4972     0.1144 H       
  48 H48           -2.7629    -2.9666     0.2146 H       
  49 H49           -2.8438    -2.8527     2.6903 H       
  50 H50           -3.8433    -1.3833     2.5901 H       
  51 H51           -4.4826    -2.9364     2.0007 H       
@<TRIPOS>BOND
   1    1    2 2
   2    1    4 1
   3    1   11 1
   4    2    3 1
   5    2    6 1
   6    3   12 2
   7    3   25 1
   8    4    5 1
   9    5    6 2
  10    5    7 1
  11    6   10 1
  12    7    8 1
  13    7    9 2
  14    8   14 ar
  15    8   22 ar
  16   10   28 1
  17   10   29 1
  18   11   13 1
  19   11   30 1
  20   13   15 1
  21   13   18 1
  22   13   31 1
  23   14   19 ar
  24   14   32 1
  25   15   16 1
  26   15   33 1
  27   15   34 1
  28   16   17 1
  29   16   35 1
  30   16   36 1
  31   17   18 1
  32   17   37 1
  33   17   38 1
  34   18   39 1
  35   18   40 1
  36   19   20 ar
  37   19   41 1
  38   20   21 ar
  39   20   23 1
  40   21   22 ar
  41   21   42 1
  42   22   43 1
  43   23   24 1
  44   24   44 1
  45   24   45 1
  46   24   46 1
  47   25   26 1
  48   26   27 1
  49   26   47 1
  50   26   48 1
  51   27   49 1
  52   27   50 1
  53   27   51 1

#	End of record

