#	Name: ASD00190023
#	Creating user name:	WinNT
#	Creation time:	15. 06. 2019 18:33

#	Modifying user name:	WinNT
#	Modification time:	15. 06. 2019 18:33

#	Program:	/corina/corina34_cracker 3.40 0067  02.08.2006

@<TRIPOS>MOLECULE
ASD00190023
  45   49    0    0    0
SMALL
NO_CHARGES


@<TRIPOS>ATOM
   1 C1            -0.0142     1.3575     0.0070 C.ar    
   2 C2             0.0050    -0.0052    -0.0080 C.ar    
   3 C3             1.2069    -0.7047    -0.0376 C.ar    
   4 C4             2.3991    -0.0413    -0.0519 C.ar    
   5 C5             2.4138     1.3571    -0.0372 C.ar    
   6 C6             1.1926     2.0734    -0.0075 C.ar    
   7 C7             3.6589     2.1125    -0.0520 C.ar    
   8 C8             3.5789     3.5086    -0.0360 C.ar    
   9 C9             2.3057     4.1210    -0.0062 C.ar    
  10 N10            1.1984     3.4146     0.0072 N.ar    
  11 N11            4.9900     1.8002    -0.0802 N.pl3   
  12 C12            5.6815     2.9727    -0.0810 C.2     
  13 N13            4.8504     3.9750    -0.0550 N.2     
  14 N14            2.2231     5.5041     0.0102 N.pl3   
  15 C15            0.9773     6.1309    -0.0801 C.ar    
  16 C16            7.1835     3.0928    -0.1071 C.3     
  17 C17            7.7450     2.9948     1.3222 C.3     
  18 C18            8.6769     1.7656     1.3461 C.3     
  19 C19            9.0940     1.5762    -0.1335 C.3     
  20 C20            7.7937     1.9198    -0.9018 C.3     
  21 C21            0.7428     7.3160     0.6058 C.ar    
  22 C22           -0.4893     7.9330     0.5139 C.ar    
  23 C23           -1.4891     7.3725    -0.2598 C.ar    
  24 C24           -1.2592     6.1926    -0.9435 C.ar    
  25 C25           -0.0276     5.5734    -0.8606 C.ar    
  26 H26           -0.9562     1.8853     0.0254 H       
  27 H27           -0.9273    -0.5502     0.0036 H       
  28 H28            1.1963    -1.7846    -0.0490 H       
  29 H29            3.3270    -0.5934    -0.0741 H       
  30 H30            5.3709     0.9083    -0.0963 H       
  31 H31            3.0301     6.0373     0.0844 H       
  32 H32            7.4741     4.0416    -0.5582 H       
  33 H33            8.3089     3.8956     1.5644 H       
  34 H34            6.9312     2.8603     2.0347 H       
  35 H35            9.5512     1.9618     1.9668 H       
  36 H36            8.1411     0.8876     1.7068 H       
  37 H37            9.8943     2.2663    -0.4006 H       
  38 H38            9.3928     0.5450    -0.3216 H       
  39 H39            7.1152     1.0667    -0.9041 H       
  40 H40            8.0234     2.2285    -1.9216 H       
  41 H41            1.5231     7.7540     1.2105 H       
  42 H42           -0.6723     8.8541     1.0472 H       
  43 H43           -2.4517     7.8570    -0.3299 H       
  44 H44           -2.0423     5.7573    -1.5466 H       
  45 H45            0.1513     4.6520    -1.3949 H       
@<TRIPOS>BOND
   1    1    2 ar
   2    1    6 ar
   3    1   26 1
   4    2    3 ar
   5    2   27 1
   6    3    4 ar
   7    3   28 1
   8    4    5 ar
   9    4   29 1
  10    5    6 ar
  11    5    7 ar
  12    6   10 ar
  13    7    8 ar
  14    7   11 1
  15    8    9 ar
  16    8   13 1
  17    9   10 ar
  18    9   14 1
  19   11   12 1
  20   11   30 1
  21   12   13 2
  22   12   16 1
  23   14   15 1
  24   14   31 1
  25   15   21 ar
  26   15   25 ar
  27   16   17 1
  28   16   20 1
  29   16   32 1
  30   17   18 1
  31   17   33 1
  32   17   34 1
  33   18   19 1
  34   18   35 1
  35   18   36 1
  36   19   20 1
  37   19   37 1
  38   19   38 1
  39   20   39 1
  40   20   40 1
  41   21   22 ar
  42   21   41 1
  43   22   23 ar
  44   22   42 1
  45   23   24 ar
  46   23   43 1
  47   24   25 ar
  48   24   44 1
  49   25   45 1

#	End of record

