#	Name: ASD03900027
#	Creating user name:	WinNT
#	Creation time:	15. 06. 2019 20:47

#	Modifying user name:	WinNT
#	Modification time:	15. 06. 2019 20:47

#	Program:	/corina/corina34_cracker 3.40 0067  02.08.2006

@<TRIPOS>MOLECULE
ASD03900027
  39   41    0    0    0
SMALL
NO_CHARGES


@<TRIPOS>ATOM
   1 C1            -0.1023     1.4541    -0.3748 C.ar    
   2 C2            -0.0834     0.1627     0.1392 C.ar    
   3 C3            -1.2352    -0.5664     0.2077 C.ar    
   4 C4            -2.4457    -0.0060    -0.2447 C.ar    
   5 C5            -2.4541     1.3034    -0.7638 C.ar    
   6 C6            -1.2925     2.0181    -0.8189 C.ar    
   7 C7            -6.4156     1.7485     0.1677 C.ar    
   8 C8            -7.4136     1.1652    -0.6044 C.ar    
   9 C9            -7.1935    -0.0529    -1.2367 C.ar    
  10 C10           -5.9929    -0.6885    -1.1049 C.ar    
  11 C11           -4.9751    -0.1059    -0.3247 C.ar    
  12 C12           -5.2081     1.1288     0.3120 C.ar    
  13 Cl13           1.3694     2.3713    -0.4559 Cl      
  14 Cl14          -8.9453     1.9632    -0.7795 Cl      
  15 C15           -3.6853    -0.7785    -0.1763 C.2     
  16 N16           -3.6385    -2.1255     0.0257 N.2     
  17 N17           -4.7283    -2.7858     0.2263 N.pl3   
  18 C18           -4.6938    -4.1550     0.3205 C.ar    
  19 C19           -5.8745    -4.8751     0.5382 C.ar    
  20 C20           -5.8320    -6.2489     0.6316 C.ar    
  21 C21           -4.6242    -6.9182     0.5109 C.ar    
  22 C22           -3.4506    -6.2118     0.2956 C.ar    
  23 C23           -3.4783    -4.8386     0.1934 C.ar    
  24 N24           -7.0791    -7.0121     0.8618 N.pl3   
  25 O25           -8.2275    -6.3778     0.9770 O.2     
  26 O26           -7.0403    -8.3255     0.9513 O.2     
  27 H27            0.8459    -0.2653     0.4852 H       
  28 H28           -1.2184    -1.5697     0.6070 H       
  29 H29           -3.3772     1.7419    -1.1132 H       
  30 H30           -1.2968     3.0222    -1.2165 H       
  31 H31           -6.5948     2.6974     0.6513 H       
  32 H32           -7.9752    -0.4979    -1.8344 H       
  33 H33           -5.8241    -1.6352    -1.5964 H       
  34 H34           -4.4338     1.5837     0.9120 H       
  35 H35           -5.5721    -2.3150     0.3107 H       
  36 H36           -6.8161    -4.3549     0.6331 H       
  37 H37           -4.5970    -7.9952     0.5854 H       
  38 H38           -2.5132    -6.7400     0.2034 H       
  39 H39           -2.5634    -4.2897     0.0257 H       
@<TRIPOS>BOND
   1    1    2 ar
   2    1   13 1
   3    1    6 ar
   4    2    3 ar
   5    2   27 1
   6    3    4 ar
   7    3   28 1
   8    4    5 ar
   9    4   15 1
  10    5    6 ar
  11    5   29 1
  12    6   30 1
  13    7    8 ar
  14    7   12 ar
  15    7   31 1
  16    8    9 ar
  17    8   14 1
  18    9   10 ar
  19    9   32 1
  20   10   11 ar
  21   10   33 1
  22   11   12 ar
  23   11   15 1
  24   12   34 1
  25   15   16 2
  26   16   17 1
  27   17   18 1
  28   17   35 1
  29   18   19 ar
  30   18   23 ar
  31   19   20 ar
  32   19   36 1
  33   20   21 ar
  34   20   24 1
  35   21   22 ar
  36   21   37 1
  37   22   23 ar
  38   22   38 1
  39   23   39 1
  40   24   25 2
  41   24   26 2

#	End of record

