#	Name: ASD01150105
#	Creating user name:	WinNT
#	Creation time:	15. 06. 2019 19:03

#	Modifying user name:	WinNT
#	Modification time:	15. 06. 2019 19:03

#	Program:	/corina/corina34_cracker 3.40 0067  02.08.2006

@<TRIPOS>MOLECULE
ASD01150105
  54   56    0    0    0
SMALL
NO_CHARGES


@<TRIPOS>ATOM
   1 N1            -0.0166     1.3763     0.0096 N.pl3   
   2 C2             0.0021    -0.0041     0.0020 C.2     
   3 C3            -1.3262    -0.4109     0.0125 C.2     
   4 N4            -2.0781     0.6927     0.0256 N.2     
   5 C5            -1.3102     1.7524     0.0299 C.2     
   6 C6             1.0206    -0.9813    -0.0125 C.2     
   7 N7             0.6807    -2.2871    -0.0159 N.am    
   8 C8            -0.6087    -2.6667    -0.0061 C.2     
   9 N9            -1.6103    -1.7670     0.0083 N.am    
  10 O10            2.1925    -0.6496    -0.0223 O.2     
  11 C11           -3.0026    -2.2226     0.0187 C.3     
  12 C12           -3.4668    -2.3869     1.4430 C.2     
  13 O13           -0.8774    -3.8526    -0.0100 O.2     
  14 C14            1.7328    -3.3064    -0.0310 C.3     
  15 C15            2.1070    -3.6631     1.3845 C.ar    
  16 C16            1.4454    -4.6866     2.0371 C.ar    
  17 C17            1.7881    -5.0142     3.3353 C.ar    
  18 C18            2.7936    -4.3176     3.9819 C.ar    
  19 C19            3.4553    -3.2933     3.3283 C.ar    
  20 C20            3.1155    -2.9704     2.0281 C.ar    
  21 Cl21           3.2242    -4.7281     5.6127 Cl      
  22 C22           -1.7991     3.1779     0.0446 C.3     
  23 C23           -1.9566     3.6481     1.4920 C.3     
  24 C24            1.1490     2.2638     0.0032 C.3     
  25 C25           -4.8723    -2.8493     1.7288 C.3     
  26 O26           -2.7124    -2.1481     2.3552 O.2     
  27 C27           -5.0843    -2.9319     3.2418 C.3     
  28 C28           -5.8683    -1.8554     1.1278 C.3     
  29 C29           -5.0914    -4.2300     1.1070 C.3     
  30 H30           -3.6294    -1.4868    -0.4852 H       
  31 H31           -3.0759    -3.1785    -0.4999 H       
  32 H32            1.3696    -4.1958    -0.5459 H       
  33 H33            2.6081    -2.9174    -0.5512 H       
  34 H34            0.6603    -5.2301     1.5324 H       
  35 H35            1.2710    -5.8136     3.8452 H       
  36 H36            4.2402    -2.7492     3.8325 H       
  37 H37            3.6320    -2.1709     1.5178 H       
  38 H38           -1.0779     3.8146    -0.4679 H       
  39 H39           -2.7616     3.2371    -0.4635 H       
  40 H40           -2.3101     4.6791     1.5026 H       
  41 H41           -2.6777     3.0114     2.0044 H       
  42 H42           -0.9941     3.5888     2.0001 H       
  43 H43            1.4282     2.4894    -1.0259 H       
  44 H44            0.9039     3.1892     0.5244 H       
  45 H45            1.9820     1.7730     0.5065 H       
  46 H46           -4.9282    -1.9482     3.6847 H       
  47 H47           -6.1009    -3.2663     3.4485 H       
  48 H48           -4.3748    -3.6399     3.6700 H       
  49 H49           -5.7173    -1.7966     0.0499 H       
  50 H50           -6.8849    -2.1899     1.3345 H       
  51 H51           -5.7122    -0.8718     1.5707 H       
  52 H52           -4.3818    -4.9380     1.5352 H       
  53 H53           -6.1080    -4.5644     1.3137 H       
  54 H54           -4.9404    -4.1712     0.0291 H       
@<TRIPOS>BOND
   1    1    2 1
   2    1   24 1
   3    1    5 1
   4    2    3 2
   5    2    6 1
   6    3    4 1
   7    3    9 1
   8    4    5 2
   9    5   22 1
  10    6    7 am
  11    6   10 2
  12    7    8 am
  13    7   14 1
  14    8    9 am
  15    8   13 2
  16    9   11 1
  17   11   12 1
  18   11   30 1
  19   11   31 1
  20   12   25 1
  21   12   26 2
  22   14   15 1
  23   14   32 1
  24   14   33 1
  25   15   16 ar
  26   15   20 ar
  27   16   17 ar
  28   16   34 1
  29   17   18 ar
  30   17   35 1
  31   18   19 ar
  32   18   21 1
  33   19   20 ar
  34   19   36 1
  35   20   37 1
  36   22   23 1
  37   22   38 1
  38   22   39 1
  39   23   40 1
  40   23   41 1
  41   23   42 1
  42   24   43 1
  43   24   44 1
  44   24   45 1
  45   25   27 1
  46   25   28 1
  47   25   29 1
  48   27   46 1
  49   27   47 1
  50   27   48 1
  51   28   49 1
  52   28   50 1
  53   28   51 1
  54   29   52 1
  55   29   53 1
  56   29   54 1

#	End of record

