#	Name: ASD01140523
#	Creating user name:	WinNT
#	Creation time:	15. 06. 2019 19:01

#	Modifying user name:	WinNT
#	Modification time:	15. 06. 2019 19:01

#	Program:	/corina/corina34_cracker 3.40 0067  02.08.2006

@<TRIPOS>MOLECULE
ASD01140523
  33   32    0    0    0
SMALL
NO_CHARGES


@<TRIPOS>ATOM
   1 N1            -0.0162     1.3436     0.0094 N.am    
   2 C2             0.0021    -0.0041     0.0020 C.2     
   3 O3             1.0625    -0.5972    -0.0113 O.2     
   4 O4            -1.1546    -0.6931     0.0094 O.3     
   5 C5            -1.0590    -2.1419     0.0007 C.3     
   6 C6            -2.4647    -2.7459     0.0108 C.3     
   7 C7            -3.2060    -2.2912     1.2697 C.3     
   8 C8            -3.2299    -2.2778    -1.2286 C.3     
   9 C9            -2.3639    -4.2725     0.0017 C.3     
  10 O10           -3.6979    -4.8457     0.0113 O.3     
  11 C11           -3.7860    -6.1892     0.0050 C.2     
  12 N12           -4.9948    -6.7853     0.0133 N.am    
  13 O13           -2.7758    -6.8642    -0.0083 O.2     
  14 C14           -2.4408    -2.7593     2.5092 C.3     
  15 C15           -3.1821    -2.3046     3.7680 C.3     
  16 H16            0.8172     1.8399     0.0041 H       
  17 H17           -0.8627     1.8171     0.0160 H       
  18 H18           -0.5309    -2.4658    -0.8961 H       
  19 H19           -0.5139    -2.4753     0.8837 H       
  20 H20           -3.2778    -1.2036     1.2762 H       
  21 H21           -4.2075    -2.7215     1.2769 H       
  22 H22           -2.7017    -2.6017    -2.1255 H       
  23 H23           -4.2313    -2.7081    -1.2214 H       
  24 H24           -3.3017    -1.1902    -1.2221 H       
  25 H25           -1.8358    -4.5964    -0.8951 H       
  26 H26           -1.8188    -4.6059     0.8847 H       
  27 H27           -5.8012    -6.2464     0.0239 H       
  28 H28           -5.0582    -7.7532     0.0087 H       
  29 H29           -2.3690    -3.8469     2.5026 H       
  30 H30           -1.4394    -2.3290     2.5019 H       
  31 H31           -2.6370    -2.6381     4.6510 H       
  32 H32           -3.2539    -1.2170     3.7745 H       
  33 H33           -4.1836    -2.7349     3.7753 H       
@<TRIPOS>BOND
   1    1    2 am
   2    1   16 1
   3    1   17 1
   4    2    3 2
   5    2    4 1
   6    4    5 1
   7    5    6 1
   8    5   18 1
   9    5   19 1
  10    6    7 1
  11    6    8 1
  12    6    9 1
  13    7   14 1
  14    7   20 1
  15    7   21 1
  16    8   22 1
  17    8   23 1
  18    8   24 1
  19    9   10 1
  20    9   25 1
  21    9   26 1
  22   10   11 1
  23   11   12 am
  24   11   13 2
  25   12   27 1
  26   12   28 1
  27   14   15 1
  28   14   29 1
  29   14   30 1
  30   15   31 1
  31   15   32 1
  32   15   33 1

#	End of record

