#	Name: ASD01230212
#	Creating user name:	WinNT
#	Creation time:	15. 06. 2019 19:12

#	Modifying user name:	WinNT
#	Modification time:	15. 06. 2019 19:12

#	Program:	/corina/corina34_cracker 3.40 0067  02.08.2006

@<TRIPOS>MOLECULE
ASD01230212
   3    2    0    0    0
SMALL
NO_CHARGES


@<TRIPOS>ATOM
   1 Ni1           -0.0310     2.4317     0.0154 Du      
   2 Cl2            0.0021    -0.0041     0.0020 Cl      
   3 Cl3           -0.0640     4.8674     0.0288 Cl      
@<TRIPOS>BOND
   1    1    2 1
   2    1    3 1

#	End of record

