#	Name: ASD01350007
#	Creating user name:	WinNT
#	Creation time:	15. 06. 2019 19:16

#	Modifying user name:	WinNT
#	Modification time:	15. 06. 2019 19:16

#	Program:	/corina/corina34_cracker 3.40 0067  02.08.2006

@<TRIPOS>MOLECULE
ASD01350007
  44   47    0    0    0
SMALL
NO_CHARGES


@<TRIPOS>ATOM
   1 C1            -0.1927     1.1825    -0.0989 C.ar    
   2 C2            -0.1586    -0.1711     0.0575 C.ar    
   3 S3            -1.6760    -1.0262     0.2880 S.3     
   4 C4            -2.3375    -0.4141     1.7944 C.ar    
   5 C5            -2.3963     0.9039     2.1721 C.ar    
   6 C6            -1.8844     2.1247     1.4601 C.3     
   7 C7            -1.4716     1.9432     0.0351 C.3     
   8 C8             0.9875     1.8775    -0.3353 C.ar    
   9 C9             2.1870     1.1924    -0.3839 C.ar    
  10 C10            2.2196    -0.1781    -0.1985 C.ar    
  11 C11            1.0441    -0.8705     0.0241 C.ar    
  12 C12           -2.8460    -1.3990     2.6622 C.ar    
  13 C13           -3.4159    -1.0795     3.8681 C.ar    
  14 C14           -3.4984     0.2520     4.2397 C.ar    
  15 C15           -2.9973     1.2173     3.4013 C.ar    
  16 N16           -2.9356     3.1500     1.5021 N.3     
  17 C17           -4.1195     2.7217     0.7440 C.3     
  18 C18           -5.2178     3.7791     0.8781 C.3     
  19 N19           -4.7163     5.0683     0.3819 N.3     
  20 C20           -3.5324     5.4965     1.1400 C.3     
  21 C21           -2.4341     4.4391     1.0059 C.3     
  22 C22           -5.7675     6.0935     0.4238 C.3     
  23 Cl23          -4.2295     0.6967     5.7502 Cl      
  24 H24           -1.0258     2.5035     2.0145 H       
  25 H25           -1.3479     2.9242    -0.4236 H       
  26 H26           -2.2585     1.4056    -0.4940 H       
  27 H27            0.9674     2.9475    -0.4806 H       
  28 H28            3.1050     1.7306    -0.5681 H       
  29 H29            3.1615    -0.7058    -0.2272 H       
  30 H30            1.0588    -1.9405     0.1706 H       
  31 H31           -2.7858    -2.4369     2.3697 H       
  32 H32           -3.7948    -1.8545     4.5179 H       
  33 H33           -3.0681     2.2534     3.6979 H       
  34 H34           -3.8552     2.6032    -0.3068 H       
  35 H35           -4.4795     1.7714     1.1382 H       
  36 H36           -6.0865     3.4774     0.2929 H       
  37 H37           -5.5013     3.8782     1.9259 H       
  38 H38           -3.1723     6.4468     0.7458 H       
  39 H39           -3.7967     5.6151     2.1908 H       
  40 H40           -1.5654     4.7409     1.5910 H       
  41 H41           -2.1506     4.3401    -0.0419 H       
  42 H42           -6.1080     6.2230     1.4512 H       
  43 H43           -5.3695     7.0374     0.0513 H       
  44 H44           -6.6050     5.7809    -0.1998 H       
@<TRIPOS>BOND
   1    1    2 ar
   2    1    8 ar
   3    1    7 1
   4    2    3 1
   5    2   11 ar
   6    3    4 1
   7    4    5 ar
   8    4   12 ar
   9    5    6 1
  10    5   15 ar
  11    6    7 1
  12    6   16 1
  13    6   24 1
  14    7   25 1
  15    7   26 1
  16    8    9 ar
  17    8   27 1
  18    9   10 ar
  19    9   28 1
  20   10   11 ar
  21   10   29 1
  22   11   30 1
  23   12   13 ar
  24   12   31 1
  25   13   14 ar
  26   13   32 1
  27   14   15 ar
  28   14   23 1
  29   15   33 1
  30   16   17 1
  31   16   21 1
  32   17   18 1
  33   17   34 1
  34   17   35 1
  35   18   19 1
  36   18   36 1
  37   18   37 1
  38   19   20 1
  39   19   22 1
  40   20   21 1
  41   20   38 1
  42   20   39 1
  43   21   40 1
  44   21   41 1
  45   22   42 1
  46   22   43 1
  47   22   44 1

#	End of record

