#	Name: ASD07300784
#	Creating user name:	WinNT
#	Creation time:	15. 06. 2019 21:10

#	Modifying user name:	WinNT
#	Modification time:	15. 06. 2019 21:10

#	Program:	/corina/corina34_cracker 3.40 0067  02.08.2006

@<TRIPOS>MOLECULE
ASD07300784
  50   54    0    0    0
SMALL
NO_CHARGES


@<TRIPOS>ATOM
   1 C1            -0.0172     1.4140     0.0098 C.2     
   2 C2             0.0021    -0.0041     0.0020 C.2     
   3 N3             1.1808     2.0893     0.0020 N.pl3   
   4 N4             1.1598    -0.6390    -0.0124 N.2     
   5 C5             2.3145     0.0264    -0.0199 C.2     
   6 C6             2.3484     1.3776    -0.0130 C.2     
   7 N7            -0.9935     2.3044     0.0292 N.2     
   8 C8            -0.4747     3.5309     0.0284 C.2     
   9 C9             0.8879     3.4248     0.0124 C.2     
  10 N10            2.8685     6.4288    -0.4620 N.pl3   
  11 N11            3.6174     5.7645     0.5168 N.2     
  12 C12            3.0215     4.6374     0.8032 C.2     
  13 C13            1.8602     4.5416     0.0098 C.2     
  14 C14            1.7954     5.6668    -0.7619 C.2     
  15 C15            3.1906     7.7296    -1.0540 C.3     
  16 C16            3.3556     8.7687     0.0568 C.3     
  17 C17            3.8137    10.0971    -0.5507 C.3     
  18 C18            3.9185    11.1479     0.5589 C.3     
  19 C19            2.5636    11.2674     1.2634 C.3     
  20 C20            2.1537     9.8938     1.8008 C.3     
  21 O21            2.1053     8.9570     0.7227 O.3     
  22 C22           -2.4705    -2.8374     0.0118 C.ar    
  23 C23           -1.2650    -2.1662     0.0030 C.ar    
  24 C24           -1.2674    -0.7675     0.0105 C.ar    
  25 C25           -2.5017    -0.1094     0.0268 C.ar    
  26 C26           -3.6597    -0.8596     0.0347 C.ar    
  27 N27           -3.6128    -2.1779     0.0271 N.ar    
  28 C28           -1.2577     4.8184     0.0472 C.3     
  29 H29            3.2427    -0.5257    -0.0314 H       
  30 H30            3.2966     1.8946    -0.0196 H       
  31 H31            3.3600     3.9062     1.5223 H       
  32 H32            1.0252     5.9040    -1.4808 H       
  33 H33            4.1193     7.6515    -1.6193 H       
  34 H34            2.3841     8.0351    -1.7205 H       
  35 H35            4.1001     8.4204     0.7727 H       
  36 H36            4.7882     9.9657    -1.0211 H       
  37 H37            3.0897    10.4256    -1.2963 H       
  38 H38            4.6782    10.8434     1.2788 H       
  39 H39            4.1901    12.1103     0.1252 H       
  40 H40            2.6440    11.9729     2.0903 H       
  41 H41            1.8142    11.6196     0.5544 H       
  42 H42            2.8824     9.5603     2.5397 H       
  43 H43            1.1704     9.9640     2.2658 H       
  44 H44           -2.4790    -3.9174     0.0016 H       
  45 H45           -0.3335    -2.7127    -0.0091 H       
  46 H46           -2.5475     0.9696     0.0334 H       
  47 H47           -4.6175    -0.3607     0.0472 H       
  48 H48           -1.4309     5.1233     1.0792 H       
  49 H49           -0.6939     5.5941    -0.4711 H       
  50 H50           -2.2145     4.6691    -0.4531 H       
@<TRIPOS>BOND
   1    1    2 1
   2    1    3 1
   3    1    7 2
   4    2    4 2
   5    2   24 1
   6    3    6 1
   7    3    9 1
   8    4    5 1
   9    5    6 2
  10    5   29 1
  11    6   30 1
  12    7    8 1
  13    8    9 2
  14    8   28 1
  15    9   13 1
  16   10   11 1
  17   10   14 1
  18   10   15 1
  19   11   12 2
  20   12   13 1
  21   12   31 1
  22   13   14 2
  23   14   32 1
  24   15   16 1
  25   15   33 1
  26   15   34 1
  27   16   17 1
  28   16   21 1
  29   16   35 1
  30   17   18 1
  31   17   36 1
  32   17   37 1
  33   18   19 1
  34   18   38 1
  35   18   39 1
  36   19   20 1
  37   19   40 1
  38   19   41 1
  39   20   21 1
  40   20   42 1
  41   20   43 1
  42   22   23 ar
  43   22   27 ar
  44   22   44 1
  45   23   24 ar
  46   23   45 1
  47   24   25 ar
  48   25   26 ar
  49   25   46 1
  50   26   27 ar
  51   26   47 1
  52   28   48 1
  53   28   49 1
  54   28   50 1

#	End of record

