#	Name: ASD01190034
#	Creating user name:	WinNT
#	Creation time:	15. 06. 2019 19:07

#	Modifying user name:	WinNT
#	Modification time:	15. 06. 2019 19:07

#	Program:	/corina/corina34_cracker 3.40 0067  02.08.2006

@<TRIPOS>MOLECULE
ASD01190034
  62   66    0    0    0
SMALL
NO_CHARGES


@<TRIPOS>ATOM
   1 C1            -0.4155     1.5112     1.8053 C.2     
   2 O2             0.6871     1.8486     1.4162 O.2     
   3 N3            -0.5322     0.6486     2.8342 N.am    
   4 C4             0.6525    -0.0043     3.4135 C.3     
   5 C5             0.6154     0.1875     4.9339 C.3     
   6 O6            -0.6537    -0.2428     5.4318 O.3     
   7 C7            -1.7634     0.5077     4.9325 C.3     
   8 C8            -1.8475     0.3365     3.4156 C.3     
   9 N9            -1.6833     3.1757     0.3718 N.pl3   
  10 C10           -1.6174     2.0480     1.1583 C.2     
  11 C11           -2.8870     1.5147     1.2269 C.2     
  12 C12           -3.7212     2.3408     0.4673 C.2     
  13 C13           -2.9636     3.3421    -0.0407 C.2     
  14 C14           -5.2007     2.1510     0.2525 C.3     
  15 C15           -5.9242     2.2177     1.5989 C.3     
  16 O16           -5.6937     3.1825    -0.6048 O.3     
  17 N17           -6.0097    -2.9745    -1.9117 N.pl3   
  18 N18           -5.4541    -3.7354    -0.8778 N.2     
  19 C19           -5.0225    -2.9538     0.0712 C.2     
  20 C20           -5.2937    -1.5761    -0.3268 C.ar    
  21 C21           -5.0643    -0.3294     0.2658 C.ar    
  22 C22           -5.4476     0.8078    -0.3844 C.ar    
  23 C23           -6.0638     0.7386    -1.6280 C.ar    
  24 C24           -6.2987    -0.4669    -2.2264 C.ar    
  25 C25           -5.9184    -1.6438    -1.5873 C.ar    
  26 C26           -6.5646    -3.4877    -3.0912 C.ar    
  27 C27           -6.0210    -4.6223    -3.6791 C.ar    
  28 C28           -6.5694    -5.1265    -4.8419 C.ar    
  29 C29           -7.6608    -4.5015    -5.4216 C.ar    
  30 C30           -8.2044    -3.3700    -4.8370 C.ar    
  31 C31           -7.6625    -2.8658    -3.6710 C.ar    
  32 F32           -8.1956    -4.9961    -6.5594 F       
  33 F33           -5.6950     3.4648     2.1902 F       
  34 F34           -7.2977     2.0416     1.3995 F       
  35 F35           -5.4416     1.2079     2.4383 F       
  36 C36           -0.5580     4.0534     0.0407 C.3     
  37 C37            0.1549     3.5194    -1.1749 C.2     
  38 C38            0.3147     4.2817    -2.2281 C.2     
  39 H39            0.6376    -1.0683     3.1773 H       
  40 H40            1.5568     0.4496     3.0082 H       
  41 H41            1.4068    -0.4035     5.3949 H       
  42 H42            0.7615     1.2412     5.1716 H       
  43 H43           -2.6834     0.1470     5.3924 H       
  44 H44           -1.6259     1.5626     5.1701 H       
  45 H45           -2.5979     1.0161     3.0117 H       
  46 H46           -2.1184    -0.6925     3.1796 H       
  47 H47           -3.1816     0.6263     1.7657 H       
  48 H48           -3.3213     4.1424    -0.6715 H       
  49 H49           -5.2785     3.2001    -1.4780 H       
  50 H50           -4.5486    -3.2693     0.9890 H       
  51 H51           -4.5867    -0.2673     1.2325 H       
  52 H52           -6.3609     1.6489    -2.1274 H       
  53 H53           -6.7788    -0.5068    -3.1931 H       
  54 H54           -5.1696    -5.1098    -3.2275 H       
  55 H55           -6.1467    -6.0087    -5.2996 H       
  56 H56           -9.0554    -2.8838    -5.2909 H       
  57 H57           -8.0898    -1.9861    -3.2127 H       
  58 H58           -0.9290     5.0570    -0.1674 H       
  59 H59            0.1345     4.0892     0.8816 H       
  60 H60            0.5341     2.5081    -1.1776 H       
  61 H61            0.8256     3.8990    -3.0993 H       
  62 H62           -0.0645     5.2930    -2.2254 H       
@<TRIPOS>BOND
   1    1    2 2
   2    1    3 am
   3    1   10 1
   4    3    4 1
   5    3    8 1
   6    4    5 1
   7    4   39 1
   8    4   40 1
   9    5    6 1
  10    5   41 1
  11    5   42 1
  12    6    7 1
  13    7    8 1
  14    7   43 1
  15    7   44 1
  16    8   45 1
  17    8   46 1
  18    9   10 1
  19    9   13 1
  20    9   36 1
  21   10   11 2
  22   11   12 1
  23   11   47 1
  24   12   13 2
  25   12   14 1
  26   13   48 1
  27   14   15 1
  28   14   16 1
  29   14   22 1
  30   15   33 1
  31   15   34 1
  32   15   35 1
  33   16   49 1
  34   17   18 1
  35   17   25 1
  36   17   26 1
  37   18   19 2
  38   19   20 1
  39   19   50 1
  40   20   21 ar
  41   20   25 ar
  42   21   22 ar
  43   21   51 1
  44   22   23 ar
  45   23   24 ar
  46   23   52 1
  47   24   25 ar
  48   24   53 1
  49   26   27 ar
  50   26   31 ar
  51   27   28 ar
  52   27   54 1
  53   28   29 ar
  54   28   55 1
  55   29   30 ar
  56   29   32 1
  57   30   31 ar
  58   30   56 1
  59   31   57 1
  60   36   37 1
  61   36   58 1
  62   36   59 1
  63   37   38 2
  64   37   60 1
  65   38   61 1
  66   38   62 1

#	End of record

