#	Name: ASD01410851
#	Creating user name:	WinNT
#	Creation time:	15. 06. 2019 19:18

#	Modifying user name:	WinNT
#	Modification time:	15. 06. 2019 19:18

#	Program:	/corina/corina34_cracker 3.40 0067  02.08.2006

@<TRIPOS>MOLECULE
ASD01410851
 120  126    0    0    0
SMALL
NO_CHARGES


@<TRIPOS>ATOM
   1 C1             1.9033     0.8797     2.9343 C.3     
   2 C2             1.1336    -0.4364     2.6763 C.3     
   3 N3             1.1462    -1.1327     3.9794 N.am    
   4 C4             1.2536    -0.1262     5.0427 C.3     
   5 C5             1.4049     1.2497     4.3580 C.3     
   6 O6             3.3151     0.6590     2.9258 O.3     
   7 C7             0.0083    -0.1422     5.8913 C.2     
   8 O8            -0.8884    -0.9185     5.6377 O.2     
   9 N9            -0.1089     0.7060     6.9321 N.am    
  10 C10            1.9112    -1.3035     1.6800 C.3     
  11 C11            1.2143    -3.3936     2.9557 C.3     
  12 C12            1.1060    -2.4669     4.1338 C.2     
  13 O13            0.9805    -2.9327     5.2466 O.2     
  14 C14           -0.0300    -4.2822     2.9014 C.3     
  15 C15           -1.1714    -3.5208     2.2245 C.3     
  16 C16            0.2824    -5.5490     2.1024 C.3     
  17 C17           -1.3680     0.7817     7.6772 C.3     
  18 C18           -2.5802     1.1647     6.8679 C.2     
  19 N19           -2.4426     1.5201     5.5752 N.am    
  20 O20           -3.6795     1.1532     7.3800 O.2     
  21 S21           -3.7561     2.0518     4.7183 S.o2    
  22 C22           -4.2272     3.6045     5.5293 C.3     
  23 C23           -1.5696    -0.2086     8.8260 C.3     
  24 C24           -1.3032     1.2686     9.1262 C.3     
  25 C25           -5.4993     4.2996     5.0397 C.3     
  26 C26           -5.4871     3.5942     6.3974 C.3     
  27 O27           -3.2463     2.3041     3.4161 O.2     
  28 O28           -4.7446     1.0548     4.9376 O.2     
  29 C29           -2.9652    -0.7258     9.0620 C.2     
  30 C30           -3.2095    -2.0105     8.9846 C.2     
  31 C31            4.0962     1.6851     2.5061 C.ar    
  32 C32            5.5065     1.5768     2.5201 C.ar    
  33 C33            3.5401     2.8520     2.0518 C.ar    
  34 C34            4.3693     3.8975     1.6231 C.ar    
  35 N35            5.6869     3.7880     1.6445 N.ar    
  36 C36            6.2858     2.6722     2.0726 C.ar    
  37 C37            3.7569     5.1510     1.1353 C.2     
  38 S38            2.0277     5.4756     1.0430 S.3     
  39 C39            7.6876     2.5682     2.0912 C.ar    
  40 C40            8.2775     1.4067     2.5378 C.ar    
  41 C41            7.4980     0.3310     2.9725 C.ar    
  42 C42            6.1390     0.4081     2.9682 C.ar    
  43 Cl43           8.6690     3.8955     1.5538 Cl      
  44 O44            9.6323     1.3051     2.5556 O.3     
  45 C45           10.1845     0.0754     3.0296 C.3     
  46 N46            4.4090     6.1952     0.7099 N.2     
  47 C47            3.6978     7.2229     0.3140 C.2     
  48 C48            2.3687     7.0791     0.3954 C.2     
  49 C49            4.3360     8.4882    -0.1989 C.3     
  50 C50            4.4152     8.4367    -1.7259 C.3     
  51 C51            3.4949     9.6929     0.2279 C.3     
  52 C52           11.7118     0.1480     2.9762 C.3     
  53 O53           12.1734     1.1462     3.8886 O.3     
  54 C54           13.5943     1.2955     3.9167 C.3     
  55 C55           -0.4453    -4.6655     4.3232 C.3     
  56 N56            1.3255    -2.6499     1.7028 N.am    
  57 O57            0.8643    -2.4804    -0.5781 O.3     
  58 C58            0.3785    -3.1433    -1.7751 C.3     
  59 C59           -1.0638    -3.6032    -1.5536 C.3     
  60 C60            0.4278    -2.1687    -2.9535 C.3     
  61 C61            1.2596    -4.3565    -2.0794 C.3     
  62 C62            0.8859    -3.2054     0.5562 C.2     
  63 O63            0.5091    -4.3606     0.5461 O.2     
  64 H64            1.6245     1.6449     2.2099 H       
  65 H65            0.1155    -0.2414     2.3393 H       
  66 H66            2.1281    -0.3311     5.6602 H       
  67 H67            2.1431     1.8599     4.8783 H       
  68 H68            0.4447     1.7632     4.3087 H       
  69 H69            0.6404     1.2665     7.1878 H       
  70 H70            1.8265    -0.8812     0.6787 H       
  71 H71            2.9599    -1.3523     1.9732 H       
  72 H72            2.0965    -4.0223     3.0762 H       
  73 H73           -0.8756    -3.2477     1.2116 H       
  74 H74           -2.0579    -4.1538     2.1859 H       
  75 H75           -1.3940    -2.6183     2.7938 H       
  76 H76            1.3556    -5.6090     1.9213 H       
  77 H77           -0.0402    -6.4237     2.6672 H       
  78 H78           -0.2457    -5.5169     1.1494 H       
  79 H79           -1.5741     1.4644     5.1466 H       
  80 H80           -3.3997     4.2372     5.8503 H       
  81 H81           -0.7654    -0.9163     9.0274 H       
  82 H82           -0.3238     1.5324     9.5252 H       
  83 H83           -2.1374     1.8658     9.4943 H       
  84 H84           -5.5087     5.3896     5.0390 H       
  85 H85           -6.0530     3.8239     4.2304 H       
  86 H86           -6.0329     2.6544     6.4811 H       
  87 H87           -5.4885     4.2201     7.2898 H       
  88 H88           -3.7641    -0.0373     9.2948 H       
  89 H89           -4.2097    -2.3811     9.1538 H       
  90 H90           -2.4106    -2.6990     8.7518 H       
  91 H91            2.4665     2.9657     2.0239 H       
  92 H92            7.9800    -0.5713     3.3190 H       
  93 H93            5.5487    -0.4304     3.3068 H       
  94 H94            9.8645    -0.0942     4.0577 H       
  95 H95            9.8375    -0.7449     2.4012 H       
  96 H96            1.6332     7.8182     0.1141 H       
  97 H97            5.3404     8.5817     0.2141 H       
  98 H98            3.4108     8.3432    -2.1389 H       
  99 H99            4.8768     9.3518    -2.0969 H       
 100 H100           5.0144     7.5784    -2.0300 H       
 101 H101           3.4384     9.7295     1.3158 H       
 102 H102           3.9565    10.6080    -0.1430 H       
 103 H103           2.4905     9.5993    -0.1851 H       
 104 H104          12.1314    -0.8192     3.2531 H       
 105 H105          12.0282     0.4054     1.9654 H       
 106 H106          14.0530     0.3522     4.2130 H       
 107 H107          13.9498     1.5768     2.9254 H       
 108 H108          13.8640     2.0715     4.6331 H       
 109 H109          -0.6679    -3.7630     4.8925 H       
 110 H110          -1.3318    -5.2986     4.2846 H       
 111 H111           0.3678    -5.2080     4.8055 H       
 112 H112          -1.6916    -2.7389    -1.3368 H       
 113 H113          -1.4285    -4.1009    -2.4522 H       
 114 H114          -1.0989    -4.2976    -0.7141 H       
 115 H115           1.4553    -1.8410    -3.1113 H       
 116 H116           0.0631    -2.6664    -3.8521 H       
 117 H117          -0.2000    -1.3044    -2.7367 H       
 118 H118           1.2245    -5.0508    -1.2399 H       
 119 H119           0.8949    -4.8542    -2.9780 H       
 120 H120           2.2872    -4.0288    -2.2372 H       
@<TRIPOS>BOND
   1    1    2 1
   2    1    6 1
   3    1    5 1
   4    1   64 1
   5    2    3 1
   6    2   10 1
   7    2   65 1
   8    3    4 1
   9    3   12 am
  10    4    5 1
  11    4    7 1
  12    4   66 1
  13    5   67 1
  14    5   68 1
  15    6   31 1
  16    7    8 2
  17    7    9 am
  18    9   17 1
  19    9   69 1
  20   10   56 1
  21   10   70 1
  22   10   71 1
  23   11   12 1
  24   11   14 1
  25   11   56 1
  26   11   72 1
  27   12   13 2
  28   14   15 1
  29   14   16 1
  30   14   55 1
  31   15   73 1
  32   15   74 1
  33   15   75 1
  34   16   76 1
  35   16   77 1
  36   16   78 1
  37   17   18 1
  38   17   23 1
  39   17   24 1
  40   18   19 am
  41   18   20 2
  42   19   21 am
  43   19   79 1
  44   21   22 1
  45   21   27 2
  46   21   28 2
  47   22   25 1
  48   22   26 1
  49   22   80 1
  50   23   24 1
  51   23   29 1
  52   23   81 1
  53   24   82 1
  54   24   83 1
  55   25   26 1
  56   25   84 1
  57   25   85 1
  58   26   86 1
  59   26   87 1
  60   29   30 2
  61   29   88 1
  62   30   89 1
  63   30   90 1
  64   31   32 ar
  65   31   33 ar
  66   32   36 ar
  67   32   42 ar
  68   33   34 ar
  69   33   91 1
  70   34   35 ar
  71   34   37 1
  72   35   36 ar
  73   36   39 ar
  74   37   46 2
  75   37   38 1
  76   38   48 1
  77   39   40 ar
  78   39   43 1
  79   40   41 ar
  80   40   44 1
  81   41   42 ar
  82   41   92 1
  83   42   93 1
  84   44   45 1
  85   45   52 1
  86   45   94 1
  87   45   95 1
  88   46   47 1
  89   47   48 2
  90   47   49 1
  91   48   96 1
  92   49   50 1
  93   49   51 1
  94   49   97 1
  95   50   98 1
  96   50   99 1
  97   50  100 1
  98   51  101 1
  99   51  102 1
 100   51  103 1
 101   52   53 1
 102   52  104 1
 103   52  105 1
 104   53   54 1
 105   54  106 1
 106   54  107 1
 107   54  108 1
 108   55  109 1
 109   55  110 1
 110   55  111 1
 111   56   62 am
 112   57   58 1
 113   57   62 1
 114   58   59 1
 115   58   60 1
 116   58   61 1
 117   59  112 1
 118   59  113 1
 119   59  114 1
 120   60  115 1
 121   60  116 1
 122   60  117 1
 123   61  118 1
 124   61  119 1
 125   61  120 1
 126   62   63 2

#	End of record

