#	Name: ASD01870227
#	Creating user name:	WinNT
#	Creation time:	15. 06. 2019 19:38

#	Modifying user name:	WinNT
#	Modification time:	15. 06. 2019 19:38

#	Program:	/corina/corina34_cracker 3.40 0067  02.08.2006

@<TRIPOS>MOLECULE
ASD01870227
  49   53    0    0    0
SMALL
NO_CHARGES


@<TRIPOS>ATOM
   1 C1             0.2411     1.2133     1.3639 C.ar    
   2 C2             0.1967    -0.1363     1.0229 C.ar    
   3 C3             1.2667    -0.7511     0.4436 C.ar    
   4 C4             2.4312    -0.0155     0.1855 C.ar    
   5 C5             2.4762     1.3617     0.5331 C.ar    
   6 C6             1.3563     1.9604     1.1281 C.ar    
   7 C7             3.5655    -0.5972    -0.4105 C.ar    
   8 N8             4.6363     0.1176    -0.6377 N.ar    
   9 C9             4.7220     1.4182    -0.3263 C.ar    
  10 C10            3.6529     2.0718     0.2629 C.ar    
  11 C11            5.8206     2.3940    -0.4956 C.2     
  12 N12            5.4506     3.5999    -0.0323 N.am    
  13 C13            4.0775     3.5015     0.4761 C.3     
  14 C14            6.2785     4.8085    -0.0336 C.3     
  15 C15            5.3931     6.0359    -0.2703 C.3     
  16 C16            4.3990     6.1690     0.8863 C.3     
  17 O17            5.1149     6.2668     2.1191 O.3     
  18 C18            5.9233     5.1265     2.4164 C.3     
  19 C19            6.9787     4.9514     1.3213 C.3     
  20 C20            3.5459    -2.0556    -0.7895 C.3     
  21 C21            3.0388    -2.2011    -2.2011 C.ar    
  22 C22            3.9184    -2.1770    -3.2660 C.ar    
  23 N23            3.4827    -2.3036    -4.5046 N.ar    
  24 C24            2.2007    -2.4577    -4.7764 C.ar    
  25 C25            1.2615    -2.4913    -3.7605 C.ar    
  26 C26            1.6836    -2.3666    -2.4466 C.ar    
  27 O27            6.9043     2.1411    -0.9845 O.2     
  28 O28            4.6790     5.8799    -1.4982 O.3     
  29 Cl29           1.6865    -2.6194    -6.4266 Cl      
  30 H30           -0.6228     1.6758     1.8180 H       
  31 H31           -0.6998    -0.7051     1.2209 H       
  32 H32            1.2173    -1.7986     0.1855 H       
  33 H33            1.3771     3.0062     1.3968 H       
  34 H34            3.4231     4.1736    -0.0789 H       
  35 H35            4.0526     3.7455     1.5382 H       
  36 H36            7.0243     4.7388    -0.8254 H       
  37 H37            6.0152     6.9295    -0.3207 H       
  38 H38            3.7947     7.0651     0.7448 H       
  39 H39            3.7506     5.2932     0.9109 H       
  40 H40            6.4171     5.2714     3.3772 H       
  41 H41            5.2948     4.2370     2.4610 H       
  42 H42            7.5679     4.0569     1.5229 H       
  43 H43            7.6328     5.8232     1.3031 H       
  44 H44            4.5551    -2.4621    -0.7223 H       
  45 H45            2.8895    -2.5989    -0.1098 H       
  46 H46            4.9754    -2.0526    -3.0823 H       
  47 H47            0.2133    -2.6169    -3.9886 H       
  48 H48            0.9734    -2.3896    -1.6333 H       
  49 H49            4.0972     6.6222    -1.7119 H       
@<TRIPOS>BOND
   1    1    2 ar
   2    1    6 ar
   3    1   30 1
   4    2    3 ar
   5    2   31 1
   6    3    4 ar
   7    3   32 1
   8    4    5 ar
   9    4    7 ar
  10    5    6 ar
  11    5   10 ar
  12    6   33 1
  13    7    8 ar
  14    7   20 1
  15    8    9 ar
  16    9   10 ar
  17    9   11 1
  18   10   13 1
  19   11   12 am
  20   11   27 2
  21   12   13 1
  22   12   14 1
  23   13   34 1
  24   13   35 1
  25   14   15 1
  26   14   19 1
  27   14   36 1
  28   15   16 1
  29   15   28 1
  30   15   37 1
  31   16   17 1
  32   16   38 1
  33   16   39 1
  34   17   18 1
  35   18   19 1
  36   18   40 1
  37   18   41 1
  38   19   42 1
  39   19   43 1
  40   20   21 1
  41   20   44 1
  42   20   45 1
  43   21   22 ar
  44   21   26 ar
  45   22   23 ar
  46   22   46 1
  47   23   24 ar
  48   24   25 ar
  49   24   29 1
  50   25   26 ar
  51   25   47 1
  52   26   48 1
  53   28   49 1

#	End of record

