#	Name: ASD00170689
#	Creating user name:	WinNT
#	Creation time:	15. 06. 2019 18:32

#	Modifying user name:	WinNT
#	Modification time:	15. 06. 2019 18:32

#	Program:	/corina/corina34_cracker 3.40 0067  02.08.2006

@<TRIPOS>MOLECULE
ASD00170689
  38   39    0    0    0
SMALL
NO_CHARGES


@<TRIPOS>ATOM
   1 N1             0.0588     1.2552     0.4919 N.pl3   
   2 C2            -0.0396    -0.1124     0.3350 C.2     
   3 S3             1.2591    -1.1378    -0.0737 S.3     
   4 C4             0.2430    -2.5678    -0.0429 C.2     
   5 C5            -1.0061    -2.2537     0.2633 C.2     
   6 C6            -1.1982    -0.8372     0.4928 C.2     
   7 C7            -2.4863    -0.2403     0.8449 C.2     
   8 O8            -3.1885     0.2478    -0.0220 O.2     
   9 C9            -2.9358    -0.2295     2.2537 C.ar    
  10 C10           -4.2141     0.2281     2.5777 C.ar    
  11 C11           -4.6285     0.2361     3.8932 C.ar    
  12 C12           -3.7793    -0.2087     4.8924 C.ar    
  13 C13           -2.5083    -0.6641     4.5775 C.ar    
  14 C14           -2.0854    -0.6824     3.2641 C.ar    
  15 Cl15          -1.4498    -1.2189     5.8366 Cl      
  16 Cl16          -4.3081    -0.1955     6.5459 Cl      
  17 C17           -2.1151    -3.2688     0.3668 C.3     
  18 C18           -2.7684    -3.4520    -1.0046 C.3     
  19 C19           -1.7376    -4.0050    -1.9907 C.3     
  20 C20           -3.9374    -4.4319    -0.8858 C.3     
  21 C21           -3.2834    -2.1023    -1.5086 C.3     
  22 H22            0.9254     1.6881     0.4412 H       
  23 H23           -0.7391     1.7840     0.6489 H       
  24 H24            0.5901    -3.5700    -0.2467 H       
  25 H25           -4.8775     0.5758     1.7995 H       
  26 H26           -5.6172     0.5905     4.1446 H       
  27 H27           -1.0951    -1.0373     3.0193 H       
  28 H28           -1.7059    -4.2210     0.7044 H       
  29 H29           -2.8612    -2.9203     1.0810 H       
  30 H30           -1.3707    -4.9666    -1.6317 H       
  31 H31           -2.2030    -4.1356    -2.9677 H       
  32 H32           -0.9048    -3.3070    -2.0754 H       
  33 H33           -4.6718    -4.0379    -0.1832 H       
  34 H34           -4.4028    -4.5624    -1.8628 H       
  35 H35           -3.5705    -5.3934    -0.5268 H       
  36 H36           -2.4514    -1.4027    -1.5881 H       
  37 H37           -3.7441    -2.2319    -2.4879 H       
  38 H38           -4.0217    -1.7108    -0.8087 H       
@<TRIPOS>BOND
   1    1    2 1
   2    1   22 1
   3    1   23 1
   4    2    3 1
   5    2    6 2
   6    3    4 1
   7    4    5 2
   8    4   24 1
   9    5    6 1
  10    5   17 1
  11    6    7 1
  12    7    8 2
  13    7    9 1
  14    9   10 ar
  15    9   14 ar
  16   10   11 ar
  17   10   25 1
  18   11   12 ar
  19   11   26 1
  20   12   13 ar
  21   12   16 1
  22   13   14 ar
  23   13   15 1
  24   14   27 1
  25   17   18 1
  26   17   28 1
  27   17   29 1
  28   18   19 1
  29   18   20 1
  30   18   21 1
  31   19   30 1
  32   19   31 1
  33   19   32 1
  34   20   33 1
  35   20   34 1
  36   20   35 1
  37   21   36 1
  38   21   37 1
  39   21   38 1

#	End of record

