#	Name: ASD01913346
#	Creating user name:	WinNT
#	Creation time:	15. 06. 2019 20:01

#	Modifying user name:	WinNT
#	Modification time:	15. 06. 2019 20:01

#	Program:	/corina/corina34_cracker 3.40 0067  02.08.2006

@<TRIPOS>MOLECULE
ASD01913346
  36   39    0    0    0
SMALL
NO_CHARGES


@<TRIPOS>ATOM
   1 C1            -0.0166     1.3765     0.0096 C.2     
   2 C2             0.0021    -0.0041     0.0020 C.2     
   3 C3             1.2499    -0.6727    -0.0135 C.2     
   4 N4             2.3635     0.0159    -0.0204 N.2     
   5 C5             2.3514     1.3566    -0.0131 C.2     
   6 N6             1.1685     2.0507     0.0019 N.pl3   
   7 C7             3.3711     2.2994    -0.0173 C.2     
   8 C8             2.7831     3.5557    -0.0047 C.2     
   9 N9             1.4768     3.4160     0.0068 N.2     
  10 C10            3.5231     4.8685    -0.0042 C.3     
  11 C11           -1.2215    -0.7480     0.0102 C.1     
  12 C12           -2.2246    -1.3579     0.0169 C.1     
  13 C13           -3.4482    -2.1018     0.0250 C.ar    
  14 C14           -3.4205    -3.4989     0.0173 C.ar    
  15 C15           -4.6030    -4.2087     0.0251 C.ar    
  16 C16           -5.8148    -3.5406     0.0407 C.ar    
  17 C17           -5.8501    -2.1573     0.0480 C.ar    
  18 C18           -4.6756    -1.4342     0.0466 C.ar    
  19 C19            3.9457     5.3369     1.3982 C.3     
  20 C20            5.2694     5.7921     0.7615 C.3     
  21 C21            5.0210     4.7315    -0.3240 C.3     
  22 H22           -0.9539     1.9131     0.0170 H       
  23 H23            1.2834    -1.7522    -0.0192 H       
  24 H24            4.4309     2.0919    -0.0282 H       
  25 H25            3.0192     5.6386    -0.5883 H       
  26 H26           -2.4755    -4.0216     0.0047 H       
  27 H27           -4.5832    -5.2885     0.0188 H       
  28 H28           -6.7376    -4.1017     0.0468 H       
  29 H29           -6.7995    -1.6427     0.0595 H       
  30 H30           -4.7046    -0.3546     0.0527 H       
  31 H31            3.3420     6.1580     1.7847 H       
  32 H32            4.0626     4.5229     2.1137 H       
  33 H33            5.2443     6.8152     0.3861 H       
  34 H34            6.1440     5.5882     1.3792 H       
  35 H35            5.4319     3.7519    -0.0794 H       
  36 H36            5.2854     5.0638    -1.3278 H       
@<TRIPOS>BOND
   1    1    2 2
   2    1    6 1
   3    1   22 1
   4    2    3 1
   5    2   11 1
   6    3    4 2
   7    3   23 1
   8    4    5 1
   9    5    6 1
  10    5    7 2
  11    6    9 1
  12    7    8 1
  13    7   24 1
  14    8    9 2
  15    8   10 1
  16   10   19 1
  17   10   21 1
  18   10   25 1
  19   11   12 3
  20   12   13 1
  21   13   14 ar
  22   13   18 ar
  23   14   15 ar
  24   14   26 1
  25   15   16 ar
  26   15   27 1
  27   16   17 ar
  28   16   28 1
  29   17   18 ar
  30   17   29 1
  31   18   30 1
  32   19   20 1
  33   19   31 1
  34   19   32 1
  35   20   21 1
  36   20   33 1
  37   20   34 1
  38   21   35 1
  39   21   36 1

#	End of record

