#	Name: ASD01230676
#	Creating user name:	WinNT
#	Creation time:	15. 06. 2019 19:14

#	Modifying user name:	WinNT
#	Modification time:	15. 06. 2019 19:14

#	Program:	/corina/corina34_cracker 3.40 0067  02.08.2006

@<TRIPOS>MOLECULE
ASD01230676
  45   48    0    0    0
SMALL
NO_CHARGES


@<TRIPOS>ATOM
   1 C1             0.3984     0.8168    -0.5332 C.2     
   2 C2             0.4618    -0.4672    -0.0371 C.2     
   3 C3            -0.6502    -1.3079    -0.1835 C.2     
   4 C4            -1.7604    -0.8774    -0.8069 C.2     
   5 N5            -1.8720     0.3850    -1.3344 N.pl3   
   6 C6            -0.8419     1.2716    -1.1970 C.2     
   7 C7            -3.1252     0.6887    -2.0304 C.3     
   8 C8            -3.5325     2.1457    -1.7928 C.3     
   9 S9            -2.1555     3.1880    -2.3693 S.o2    
  10 N10           -0.8496     2.5169    -1.6067 N.am    
  11 C11            1.5551     1.7310    -0.3979 C.ar    
  12 C12            2.7532     1.4448    -1.0535 C.ar    
  13 C13            3.8281     2.2987    -0.9256 C.ar    
  14 C14            3.7197     3.4421    -0.1451 C.ar    
  15 C15            2.5289     3.7302     0.5088 C.ar    
  16 C16            1.4480     2.8839     0.3808 C.ar    
  17 O17            4.7814     4.2809    -0.0206 O.3     
  18 C18            4.9191     5.2761    -0.9361 C.ar    
  19 C19            3.9355     5.4798    -1.8928 C.ar    
  20 C20            4.0742     6.4920    -2.8241 C.ar    
  21 C21            5.1936     7.3038    -2.8042 C.ar    
  22 C22            6.1814     7.1026    -1.8477 C.ar    
  23 C23            6.0405     6.0921    -0.9103 C.ar    
  24 F24            5.3272     8.2924    -3.7153 F       
  25 O25           -1.9126     2.9821    -3.7542 O.2     
  26 O26           -2.2503     4.4963    -1.8230 O.2     
  27 O27            7.2822     7.9002    -1.8282 O.3     
  28 C28            8.2568     7.6361    -0.8171 C.3     
  29 H29            1.3549    -0.8205     0.4568 H       
  30 H30           -0.6143    -2.3135     0.2088 H       
  31 H31           -2.5987    -1.5523    -0.8966 H       
  32 H32           -2.9923     0.5222    -3.0994 H       
  33 H33           -3.9110     0.0306    -1.6596 H       
  34 H34           -4.4350     2.3762    -2.3589 H       
  35 H35           -3.7063     2.3143    -0.7301 H       
  36 H36            2.8384     0.5553    -1.6601 H       
  37 H37            4.7557     2.0778    -1.4328 H       
  38 H38            2.4481     4.6204     1.1150 H       
  39 H39            0.5222     3.1087     0.8894 H       
  40 H40            3.0606     4.8468    -1.9104 H       
  41 H41            3.3075     6.6488    -3.5684 H       
  42 H42            6.8071     5.9342    -0.1661 H       
  43 H43            9.0814     8.3424    -0.9140 H       
  44 H44            7.7990     7.7448     0.1661 H       
  45 H45            8.6336     6.6198    -0.9322 H       
@<TRIPOS>BOND
   1    1    2 2
   2    1   11 1
   3    1    6 1
   4    2    3 1
   5    2   29 1
   6    3    4 2
   7    3   30 1
   8    4    5 1
   9    4   31 1
  10    5    6 1
  11    5    7 1
  12    6   10 2
  13    7    8 1
  14    7   32 1
  15    7   33 1
  16    8    9 1
  17    8   34 1
  18    8   35 1
  19    9   10 am
  20    9   25 2
  21    9   26 2
  22   11   12 ar
  23   11   16 ar
  24   12   13 ar
  25   12   36 1
  26   13   14 ar
  27   13   37 1
  28   14   15 ar
  29   14   17 1
  30   15   16 ar
  31   15   38 1
  32   16   39 1
  33   17   18 1
  34   18   19 ar
  35   18   23 ar
  36   19   20 ar
  37   19   40 1
  38   20   21 ar
  39   20   41 1
  40   21   22 ar
  41   21   24 1
  42   22   23 ar
  43   22   27 1
  44   23   42 1
  45   27   28 1
  46   28   43 1
  47   28   44 1
  48   28   45 1

#	End of record

