#	Name: ASD01900792
#	Creating user name:	WinNT
#	Creation time:	15. 06. 2019 19:52

#	Modifying user name:	WinNT
#	Modification time:	15. 06. 2019 19:52

#	Program:	/corina/corina34_cracker 3.40 0067  02.08.2006

@<TRIPOS>MOLECULE
ASD01900792
  28   30    0    0    0
SMALL
NO_CHARGES


@<TRIPOS>ATOM
   1 C1             1.2101    -0.6803    -0.0132 C.ar    
   2 N2             0.0021    -0.0041     0.0020 N.pl3   
   3 C3            -1.2034    -0.7177    -0.0963 C.2     
   4 N4             2.3395     0.0130    -0.0262 N.ar    
   5 N5             1.2096    -2.0054    -0.0089 N.ar    
   6 C6             2.3463    -2.6819    -0.0227 C.ar    
   7 C7             3.5459    -1.9881    -0.0417 C.ar    
   8 C8             3.5101    -0.6022    -0.0405 C.ar    
   9 N9            -1.2333    -2.0188    -0.3007 N.2     
  10 C10           -2.4075    -2.5785    -0.3747 C.2     
  11 S11           -3.6494    -1.3468    -0.1659 S.3     
  12 C12           -2.3979    -0.1196     0.0175 C.2     
  13 C13           -2.6580    -4.0188    -0.5992 C.2     
  14 C14           -3.8810    -4.6239    -0.6797 C.2     
  15 C15           -1.6786    -5.0184    -0.7754 C.2     
  16 N16           -2.2905    -6.1596    -0.9467 N.2     
  17 N17           -3.6718    -5.9383    -0.8908 N.pl3   
  18 C18            4.7897     0.1937    -0.0613 C.3     
  19 H19           -0.0116     0.9626     0.0806 H       
  20 H20            2.3395    -3.7619    -0.0187 H       
  21 H21            4.4882    -2.5157    -0.0533 H       
  22 H22           -2.5647     0.9338     0.1872 H       
  23 H23           -4.8409    -4.1370    -0.5905 H       
  24 H24           -0.6093    -4.8666    -0.7702 H       
  25 H25           -4.3600    -6.6149    -0.9876 H       
  26 H26            5.0812     0.3860    -1.0939 H       
  27 H27            4.6367     1.1411     0.4556 H       
  28 H28            5.5766    -0.3704     0.4393 H       
@<TRIPOS>BOND
   1    1    2 1
   2    1    4 ar
   3    1    5 ar
   4    2    3 1
   5    2   19 1
   6    3    9 1
   7    3   12 2
   8    4    8 ar
   9    5    6 ar
  10    6    7 ar
  11    6   20 1
  12    7    8 ar
  13    7   21 1
  14    8   18 1
  15    9   10 2
  16   10   11 1
  17   10   13 1
  18   11   12 1
  19   12   22 1
  20   13   14 2
  21   13   15 1
  22   14   17 1
  23   14   23 1
  24   15   16 2
  25   15   24 1
  26   16   17 1
  27   17   25 1
  28   18   26 1
  29   18   27 1
  30   18   28 1

#	End of record

