#	Name: ASD02198666
#	Creating user name:	WinNT
#	Creation time:	15. 06. 2019 20:19

#	Modifying user name:	WinNT
#	Modification time:	15. 06. 2019 20:19

#	Program:	/corina/corina34_cracker 3.40 0067  02.08.2006

@<TRIPOS>MOLECULE
ASD02198666
  47   49    0    0    0
SMALL
NO_CHARGES


@<TRIPOS>ATOM
   1 C1            -0.0164     1.3546     0.0095 C.2     
   2 C2             0.0021    -0.0041     0.0020 C.2     
   3 N3            -1.1538    -0.7131     0.0097 N.pl3   
   4 N4            -2.3138    -0.1682     0.0238 N.2     
   5 C5            -2.4751     1.1403     0.0323 C.2     
   6 C6            -1.2844     2.0003     0.0311 C.2     
   7 C7            -1.0762    -2.1095     0.0014 C.ar    
   8 C8            -1.6597    -4.2221    -0.9900 C.ar    
   9 C9            -0.9219    -4.8777    -0.0143 C.ar    
  10 C10           -0.2668    -4.1486     0.9707 C.ar    
  11 C11           -0.3439    -2.7709     0.9789 C.ar    
  12 C12           -3.8279     1.7304     0.0479 C.2     
  13 O13           -1.3786     3.2182     0.0388 O.2     
  14 C14           -1.7387    -2.8395    -0.9848 C.ar    
  15 N15           -4.9122     0.9300     0.0535 N.am    
  16 O16           -3.9641     2.9386     0.0557 O.2     
  17 N17           -0.8418    -6.2769    -0.0193 N.pl3   
  18 N18           -1.4519    -7.1343    -0.9440 N.2     
  19 C19           -1.1480    -8.3661    -0.6222 C.2     
  20 C20           -0.3355    -8.3336     0.5164 C.2     
  21 C21           -0.1570    -7.0381     0.8641 C.2     
  22 O22           -4.7536    -0.4771     0.0444 O.3     
  23 C23           -4.6765    -1.0617     1.3460 C.3     
  24 C24           -6.2549     1.5157     0.0690 C.3     
  25 O25           -2.4609    -2.1954    -1.9389 O.3     
  26 C26           -3.1129    -3.0073    -2.9175 C.3     
  27 O27            1.1379     2.0729     0.0023 O.3     
  28 C28            2.3614     1.3348    -0.0133 C.3     
  29 H29            0.9480    -0.5251    -0.0105 H       
  30 H30           -2.1682    -4.7895    -1.7554 H       
  31 H31            0.3064    -4.6609     1.7292 H       
  32 H32            0.1658    -2.2065     1.7458 H       
  33 H33           -1.4695    -9.2546    -1.1453 H       
  34 H34            0.0797    -9.1910     1.0252 H       
  35 H35            0.4223    -6.6772     1.7011 H       
  36 H36           -4.5556    -2.1410     1.2530 H       
  37 H37           -3.8233    -0.6453     1.8814 H       
  38 H38           -5.5920    -0.8448     1.8965 H       
  39 H39           -6.5974     1.6665    -0.9548 H       
  40 H40           -6.9391     0.8424     0.5854 H       
  41 H41           -6.2274     2.4739     0.5878 H       
  42 H42           -2.3690    -3.5923    -3.4584 H       
  43 H43           -3.8143    -3.6794    -2.4232 H       
  44 H44           -3.6527    -2.3695    -3.6175 H       
  45 H45            3.2033     2.0270    -0.0176 H       
  46 H46            2.4155     0.7024     0.8728 H       
  47 H47            2.3985     0.7119    -0.9071 H       
@<TRIPOS>BOND
   1    1    2 2
   2    1   27 1
   3    1    6 1
   4    2    3 1
   5    2   29 1
   6    3    4 1
   7    3    7 1
   8    4    5 2
   9    5    6 1
  10    5   12 1
  11    6   13 2
  12    7   14 ar
  13    7   11 ar
  14    8    9 ar
  15    8   14 ar
  16    8   30 1
  17    9   10 ar
  18    9   17 1
  19   10   11 ar
  20   10   31 1
  21   11   32 1
  22   12   15 am
  23   12   16 2
  24   14   25 1
  25   15   22 1
  26   15   24 1
  27   17   18 1
  28   17   21 1
  29   18   19 2
  30   19   20 1
  31   19   33 1
  32   20   21 2
  33   20   34 1
  34   21   35 1
  35   22   23 1
  36   23   36 1
  37   23   37 1
  38   23   38 1
  39   24   39 1
  40   24   40 1
  41   24   41 1
  42   25   26 1
  43   26   42 1
  44   26   43 1
  45   26   44 1
  46   27   28 1
  47   28   45 1
  48   28   46 1
  49   28   47 1

#	End of record

