#	Name: ASD02508489
#	Creating user name:	WinNT
#	Creation time:	15. 06. 2019 20:24

#	Modifying user name:	WinNT
#	Modification time:	15. 06. 2019 20:24

#	Program:	/corina/corina34_cracker 3.40 0067  02.08.2006

@<TRIPOS>MOLECULE
ASD02508489
  31   33    0    0    0
SMALL
NO_CHARGES


@<TRIPOS>ATOM
   1 C1             1.1040     1.7622     0.2840 C.2     
   2 C2             2.0330     0.7208     0.1907 C.2     
   3 C3             1.3583    -0.4492     0.2838 C.2     
   4 N4             0.0464    -0.1570     0.4310 N.pl3   
   5 N5            -0.0869     1.2375     0.4280 N.2     
   6 C6            -0.9935    -1.0831     0.5625 C.2     
   7 S7             2.0631    -2.0630     0.2230 S.o2    
   8 N8             1.9122    -2.6054    -1.3344 N.am    
   9 C9             2.6357    -1.9933    -2.3603 C.ar    
  10 C10            2.6646    -0.6081    -2.4609 C.ar    
  11 O11            3.4551    -1.9020     0.4587 O.2     
  12 O12            1.2309    -2.8946     1.0199 O.2     
  13 C13            3.3326    -2.7681    -3.2787 C.ar    
  14 C14            4.0478    -2.1601    -4.2920 C.ar    
  15 C15            4.0713    -0.7816    -4.3931 C.ar    
  16 C16            3.3820    -0.0058    -3.4770 C.ar    
  17 Cl17           3.4143     1.7250    -3.6079 Cl      
  18 C18           -2.0079    -0.9886     1.4344 C.2     
  19 C19           -2.9188    -2.0288     1.3790 C.2     
  20 C20           -2.6497    -2.9654     0.4683 C.2     
  21 S21           -1.1761    -2.5468    -0.3954 S.3     
  22 H22            1.3306     2.8176     0.2481 H       
  23 H23            3.1001     0.8306     0.0660 H       
  24 H24            1.3213    -3.3483    -1.5341 H       
  25 H25            2.1269    -0.0027    -1.7462 H       
  26 H26            3.3155    -3.8451    -3.2002 H       
  27 H27            4.5896    -2.7625    -5.0061 H       
  28 H28            4.6318    -0.3089    -5.1860 H       
  29 H29           -2.1061    -0.1651     2.1262 H       
  30 H30           -3.7828    -2.0787     2.0250 H       
  31 H31           -3.2484    -3.8457     0.2862 H       
@<TRIPOS>BOND
   1    1    2 1
   2    1    5 2
   3    1   22 1
   4    2    3 2
   5    2   23 1
   6    3    4 1
   7    3    7 1
   8    4    5 1
   9    4    6 1
  10    6   18 2
  11    6   21 1
  12    7    8 am
  13    7   11 2
  14    7   12 2
  15    8    9 1
  16    8   24 1
  17    9   13 ar
  18    9   10 ar
  19   10   16 ar
  20   10   25 1
  21   13   14 ar
  22   13   26 1
  23   14   15 ar
  24   14   27 1
  25   15   16 ar
  26   15   28 1
  27   16   17 1
  28   18   19 1
  29   18   29 1
  30   19   20 2
  31   19   30 1
  32   20   21 1
  33   20   31 1

#	End of record

