#	Name: ASD01883919
#	Creating user name:	WinNT
#	Creation time:	15. 06. 2019 19:47

#	Modifying user name:	WinNT
#	Modification time:	15. 06. 2019 19:47

#	Program:	/corina/corina34_cracker 3.40 0067  02.08.2006

@<TRIPOS>MOLECULE
ASD01883919
  49   53    0    0    0
SMALL
NO_CHARGES


@<TRIPOS>ATOM
   1 C1            -0.7669     1.4115    -1.0614 C.2     
   2 C2            -0.7643     0.0060    -1.0937 C.2     
   3 C3            -1.1844    -0.6871     0.0097 C.2     
   4 C4            -1.6108     0.0190     1.1552 C.2     
   5 C5            -1.6050     1.3664     1.1642 C.2     
   6 N6            -1.1944     2.0670     0.0675 N.pl3   
   7 N7            -0.4295     2.3427    -1.9407 N.2     
   8 N8            -0.6153     3.5073    -1.4261 N.2     
   9 C9            -1.0793     3.3976    -0.2091 C.2     
  10 Cl10          -0.2358    -0.8398    -2.5146 Cl      
  11 N11           -1.1914    -2.0799     0.0018 N.pl3   
  12 C12           -1.4262     4.5339     0.7181 C.3     
  13 C13           -2.4534    -2.8228     0.1201 C.3     
  14 C14           -2.3310    -3.8221     1.2748 C.3     
  15 C15           -1.1007    -4.7046     1.0521 C.3     
  16 C16            0.1573    -3.8332     1.0320 C.3     
  17 C17            0.0625    -2.8341    -0.1311 C.3     
  18 C18           -0.9963    -5.7113     2.1687 C.ar    
  19 C19           -1.0294    -7.0639     1.8842 C.ar    
  20 C20           -0.9331    -7.9889     2.9087 C.ar    
  21 C21           -0.8035    -7.5576     4.2205 C.ar    
  22 C22           -0.7706    -6.2032     4.5019 C.ar    
  23 C23           -0.8618    -5.2816     3.4754 C.ar    
  24 C24           -0.1965     4.9090     1.5475 C.3     
  25 C25           -0.3106     6.1239     2.4705 C.3     
  26 C26           -0.2797     4.7135     3.0627 C.3     
  27 F27           -0.9658    -9.3108     2.6316 F       
  28 F28           -0.7097    -8.4589     5.2225 F       
  29 H29           -1.9435    -0.5231     2.0281 H       
  30 H30           -1.9336     1.8969     2.0457 H       
  31 H31           -1.7463     5.3958     0.1327 H       
  32 H32           -2.2331     4.2265     1.3833 H       
  33 H33           -3.2687    -2.1283     0.3228 H       
  34 H34           -2.6500    -3.3594    -0.8082 H       
  35 H35           -2.2251    -3.2806     2.2148 H       
  36 H36           -3.2241    -4.4458     1.3123 H       
  37 H37           -1.1959    -5.2269     0.1002 H       
  38 H38            0.2398    -3.2916     1.9743 H       
  39 H39            1.0353    -4.4649     0.8968 H       
  40 H40            0.0720    -3.3737    -1.0781 H       
  41 H41            0.9072    -2.1462    -0.0916 H       
  42 H42           -1.1307    -7.3985     0.8623 H       
  43 H43           -0.6701    -5.8661     5.5230 H       
  44 H44           -0.8320    -4.2246     3.6952 H       
  45 H45            0.7661     4.7294     1.0687 H       
  46 H46            0.5770     6.7433     2.5992 H       
  47 H47           -1.2618     6.6559     2.4868 H       
  48 H48           -1.2106     4.3176     3.4686 H       
  49 H49            0.6282     4.4050     3.5810 H       
@<TRIPOS>BOND
   1    1    2 1
   2    1    7 2
   3    1    6 1
   4    2    3 2
   5    2   10 1
   6    3    4 1
   7    3   11 1
   8    4    5 2
   9    4   29 1
  10    5    6 1
  11    5   30 1
  12    6    9 1
  13    7    8 1
  14    8    9 2
  15    9   12 1
  16   11   13 1
  17   11   17 1
  18   12   24 1
  19   12   31 1
  20   12   32 1
  21   13   14 1
  22   13   33 1
  23   13   34 1
  24   14   15 1
  25   14   35 1
  26   14   36 1
  27   15   16 1
  28   15   18 1
  29   15   37 1
  30   16   17 1
  31   16   38 1
  32   16   39 1
  33   17   40 1
  34   17   41 1
  35   18   19 ar
  36   18   23 ar
  37   19   20 ar
  38   19   42 1
  39   20   21 ar
  40   20   27 1
  41   21   22 ar
  42   21   28 1
  43   22   23 ar
  44   22   43 1
  45   23   44 1
  46   24   25 1
  47   24   26 1
  48   24   45 1
  49   25   26 1
  50   25   46 1
  51   25   47 1
  52   26   48 1
  53   26   49 1

#	End of record

