#	Name: ASD01000095
#	Creating user name:	WinNT
#	Creation time:	15. 06. 2019 18:54

#	Modifying user name:	WinNT
#	Modification time:	15. 06. 2019 18:54

#	Program:	/corina/corina34_cracker 3.40 0067  02.08.2006

@<TRIPOS>MOLECULE
ASD01000095
  53   55    0    0    0
SMALL
NO_CHARGES


@<TRIPOS>ATOM
   1 C1            -0.0524     1.4438    -0.1298 C.2     
   2 C2            -0.1438     0.1298    -0.0355 C.2     
   3 C3             1.2287    -0.4852    -0.1129 C.3     
   4 N4             2.1907     0.6143    -0.2679 N.am    
   5 C5             1.3908     1.8467    -0.2803 C.3     
   6 C6             3.5304     0.5134    -0.3756 C.2     
   7 O7             4.2104     1.5174    -0.4657 O.2     
   8 C8             1.7979     2.7336     0.8681 C.ar    
   9 C9             1.5900     2.5831    -1.6065 C.3     
  10 C10            1.2649     4.0039     0.9830 C.ar    
  11 C11            1.6383     4.8175     2.0363 C.ar    
  12 C12            2.5444     4.3606     2.9751 C.ar    
  13 C13            3.0766     3.0899     2.8607 C.ar    
  14 C14            2.6999     2.2748     1.8097 C.ar    
  15 C15           -1.4046    -0.6245     0.1233 C.ar    
  16 C16           -2.0640    -0.6377     1.3550 C.ar    
  17 C17           -3.2430    -1.3453     1.4968 C.ar    
  18 C18           -3.7698    -2.0389     0.4231 C.ar    
  19 C19           -3.1207    -2.0298    -0.8013 C.ar    
  20 C20           -1.9447    -1.3218    -0.9578 C.ar    
  21 F21           -3.6421    -2.7101    -1.8456 F       
  22 F22           -1.5501     0.0392     2.4053 F       
  23 C23            1.2672     1.6399    -2.7671 C.3     
  24 C24            1.5847     2.3349    -4.0926 C.3     
  25 N25            1.2747     1.4293    -5.2069 N.3     
  26 N26            4.1163    -0.7003    -0.3836 N.am    
  27 C27            5.5773    -0.8084    -0.3876 C.3     
  28 C28            3.2922    -1.9115    -0.3882 C.3     
  29 H29           -0.8883     2.1272    -0.1071 H       
  30 H30            1.4401    -1.0365     0.8034 H       
  31 H31            1.2876    -1.1533    -0.9721 H       
  32 H32            0.9269     3.4473    -1.6454 H       
  33 H33            2.6251     2.9155    -1.6856 H       
  34 H34            0.5571     4.3608     0.2495 H       
  35 H35            1.2225     5.8102     2.1256 H       
  36 H36            2.8366     4.9964     3.7976 H       
  37 H37            3.7847     2.7331     3.5939 H       
  38 H38            3.1158     1.2820     1.7204 H       
  39 H39           -3.7534    -1.3567     2.4485 H       
  40 H40           -4.6911    -2.5905     0.5392 H       
  41 H41           -1.4398    -1.3155    -1.9125 H       
  42 H42            1.8686     0.7351    -2.6781 H       
  43 H43            0.2096     1.3774    -2.7386 H       
  44 H44            0.9833     3.2396    -4.1816 H       
  45 H45            2.6422     2.5974    -4.1211 H       
  46 H46            1.4760     1.8656    -6.0942 H       
  47 H47            1.7716     0.5562    -5.1123 H       
  48 H48            5.9420    -0.8407     0.6390 H       
  49 H49            5.8728    -1.7199    -0.9071 H       
  50 H50            6.0041     0.0552    -0.8978 H       
  51 H51            2.9771    -2.1327    -1.4080 H       
  52 H52            3.8726    -2.7474     0.0021 H       
  53 H53            2.4136    -1.7555     0.2378 H       
@<TRIPOS>BOND
   1    1    2 2
   2    1    5 1
   3    1   29 1
   4    2    3 1
   5    2   15 1
   6    3    4 1
   7    3   30 1
   8    3   31 1
   9    4    5 1
  10    4    6 am
  11    5    8 1
  12    5    9 1
  13    6   26 am
  14    6    7 2
  15    8   10 ar
  16    8   14 ar
  17    9   23 1
  18    9   32 1
  19    9   33 1
  20   10   11 ar
  21   10   34 1
  22   11   12 ar
  23   11   35 1
  24   12   13 ar
  25   12   36 1
  26   13   14 ar
  27   13   37 1
  28   14   38 1
  29   15   16 ar
  30   15   20 ar
  31   16   17 ar
  32   16   22 1
  33   17   18 ar
  34   17   39 1
  35   18   19 ar
  36   18   40 1
  37   19   20 ar
  38   19   21 1
  39   20   41 1
  40   23   24 1
  41   23   42 1
  42   23   43 1
  43   24   25 1
  44   24   44 1
  45   24   45 1
  46   25   46 1
  47   25   47 1
  48   26   27 1
  49   26   28 1
  50   27   48 1
  51   27   49 1
  52   27   50 1
  53   28   51 1
  54   28   52 1
  55   28   53 1

#	End of record

