#	Name: ASD01028459
#	Creating user name:	WinNT
#	Creation time:	15. 06. 2019 18:57

#	Modifying user name:	WinNT
#	Modification time:	15. 06. 2019 18:57

#	Program:	/corina/corina34_cracker 3.40 0067  02.08.2006

@<TRIPOS>MOLECULE
ASD01028459
  47   51    0    0    0
SMALL
NO_CHARGES


@<TRIPOS>ATOM
   1 C1            -0.0171     1.4105     0.0098 C.ar    
   2 C2             0.0021    -0.0041     0.0020 C.ar    
   3 C3             1.2172     2.1062     0.0017 C.ar    
   4 C4             2.3840     1.3600    -0.0135 C.ar    
   5 C5             2.3156    -0.0268    -0.0203 C.ar    
   6 N6             1.1664    -0.6615    -0.0123 N.ar    
   7 N7             1.2559     3.4929     0.0084 N.pl3   
   8 C8             2.5445     4.1898    -0.0001 C.3     
   9 C9             2.3106     5.6785     0.0096 C.2     
  10 N10            2.1960     6.4680     1.1122 N.pl3   
  11 C11            1.9926     7.7421     0.6429 C.2     
  12 N12            1.9932     7.6685    -0.6782 N.2     
  13 N13            2.1863     6.4490    -1.0403 N.2     
  14 C14            2.2451     6.2220     2.4522 C.2     
  15 C15            2.0926     7.2371     3.3452 C.2     
  16 C16            1.8817     8.5595     2.8880 C.2     
  17 C17            1.8333     8.8093     1.5524 C.2     
  18 C18            2.1470     6.9567     4.8015 C.ar    
  19 C19           -1.2223    -0.6977     0.0101 C.ar    
  20 C20           -2.3811     0.0331     0.0251 C.ar    
  21 C21           -2.3227     1.4307     0.0320 C.ar    
  22 N22           -1.1775     2.0678     0.0299 N.ar    
  23 O23           -3.5841    -0.5981     0.0329 O.3     
  24 C24           -4.7501     0.2280     0.0486 C.3     
  25 C25            3.1752     7.4876     5.5775 C.ar    
  26 C26            3.2223     7.2244     6.9318 C.ar    
  27 C27            2.2514     6.4351     7.5200 C.ar    
  28 C28            1.2263     5.9036     6.7539 C.ar    
  29 C29            1.1670     6.1664     5.3982 C.ar    
  30 F30            0.2806     5.1326     7.3338 F       
  31 F31            1.6326    10.0665     1.1005 F       
  32 H32            3.3437     1.8552    -0.0203 H       
  33 H33            3.2319    -0.5984    -0.0326 H       
  34 H34            0.4298     4.0012     0.0188 H       
  35 H35            3.1169     3.9062     0.8831 H       
  36 H36            3.1002     3.9152    -0.8968 H       
  37 H37            2.4058     5.2147     2.8072 H       
  38 H38            1.7603     9.3659     3.5961 H       
  39 H39           -1.2479    -1.7774     0.0042 H       
  40 H40           -3.2420     1.9974     0.0439 H       
  41 H41           -5.6406    -0.4006     0.0534 H       
  42 H42           -4.7411     0.8522     0.9420 H       
  43 H43           -4.7579     0.8623    -0.8378 H       
  44 H44            3.9347     8.1042     5.1199 H       
  45 H45            4.0195     7.6357     7.5332 H       
  46 H46            2.2922     6.2318     8.5799 H       
  47 H47            0.3679     5.7524     4.8011 H       
@<TRIPOS>BOND
   1    1    2 ar
   2    1    3 ar
   3    1   22 ar
   4    2   19 ar
   5    2    6 ar
   6    3    4 ar
   7    3    7 1
   8    4    5 ar
   9    4   32 1
  10    5    6 ar
  11    5   33 1
  12    7    8 1
  13    7   34 1
  14    8    9 1
  15    8   35 1
  16    8   36 1
  17    9   10 1
  18    9   13 2
  19   10   11 1
  20   10   14 1
  21   11   12 2
  22   11   17 1
  23   12   13 1
  24   14   15 2
  25   14   37 1
  26   15   16 1
  27   15   18 1
  28   16   17 2
  29   16   38 1
  30   17   31 1
  31   18   25 ar
  32   18   29 ar
  33   19   20 ar
  34   19   39 1
  35   20   21 ar
  36   20   23 1
  37   21   22 ar
  38   21   40 1
  39   23   24 1
  40   24   41 1
  41   24   42 1
  42   24   43 1
  43   25   26 ar
  44   25   44 1
  45   26   27 ar
  46   26   45 1
  47   27   28 ar
  48   27   46 1
  49   28   29 ar
  50   28   30 1
  51   29   47 1

#	End of record

