#	Name: ASD01910398
#	Creating user name:	WinNT
#	Creation time:	15. 06. 2019 19:55

#	Modifying user name:	WinNT
#	Modification time:	15. 06. 2019 19:55

#	Program:	/corina/corina34_cracker 3.40 0067  02.08.2006

@<TRIPOS>MOLECULE
ASD01910398
  50   52    0    0    0
SMALL
NO_CHARGES


@<TRIPOS>ATOM
   1 C1            -0.0187     1.5289     0.0104 C.3     
   2 C2             0.0021    -0.0041     0.0020 C.3     
   3 C3             0.6326    -0.4715    -1.3067 C.3     
   4 C4             2.0830     0.0051    -1.4168 C.3     
   5 C5             2.1762     1.5278    -1.2120 C.3     
   6 C6             1.4269     2.0247    -0.0007 C.3     
   7 N7             2.4761    -0.1741    -2.8382 N.am    
   8 C8             2.1405     1.0589    -3.5687 C.3     
   9 C9             1.5958     2.0713    -2.5337 C.3     
  10 O10            1.4297     3.4537    -0.0045 O.3     
  11 C11            2.1076     1.5480     1.2143 C.1     
  12 C12            3.0431    -1.2762    -3.3677 C.2     
  13 O13            3.2751    -2.2385    -2.6629 O.2     
  14 C14            2.6505     1.1677     2.1832 C.1     
  15 C15            3.3127     0.7039     3.3652 C.ar    
  16 C16            2.8098     1.0327     4.6238 C.ar    
  17 C17            4.4602    -0.0832     3.2616 C.ar    
  18 C18            5.0961    -0.5286     4.4028 C.ar    
  19 C19            4.5996    -0.1977     5.6496 C.ar    
  20 C20            3.4553     0.5808     5.7623 C.ar    
  21 O21            3.3524    -1.3110    -4.6776 O.3     
  22 C22            4.2384    -2.3831    -6.6765 C.3     
  23 C23            3.9607    -2.5303    -5.1791 C.3     
  24 O24            2.9716     0.9035     6.9907 O.3     
  25 C25            3.6907     0.4080     8.1218 C.3     
  26 H26           -0.5399     1.8947    -0.8742 H       
  27 H27           -0.5229     1.8851     0.9088 H       
  28 H28            0.5925    -0.3671     0.8433 H       
  29 H29           -1.0168    -0.3847     0.0743 H       
  30 H30            0.6096    -1.5605    -1.3463 H       
  31 H31            0.0597    -0.0714    -2.1432 H       
  32 H32            2.7354    -0.5337    -0.7297 H       
  33 H33            3.2231     1.8224    -1.1396 H       
  34 H34            3.0337     1.4615    -4.0466 H       
  35 H35            1.3783     0.8495    -4.3191 H       
  36 H36            0.5061     2.0580    -2.5138 H       
  37 H37            1.9693     3.0747    -2.7382 H       
  38 H38            0.9657     3.8500     0.7457 H       
  39 H39            1.9196     1.6382     4.7102 H       
  40 H40            4.8504    -0.3442     2.2889 H       
  41 H41            5.9842    -1.1378     4.3213 H       
  42 H42            5.1008    -0.5495     6.5392 H       
  43 H43            3.3018    -2.2009    -7.2035 H       
  44 H44            4.9162    -1.5452    -6.8397 H       
  45 H45            4.6950    -3.2985    -7.0530 H       
  46 H46            4.8972    -2.7125    -4.6521 H       
  47 H47            3.2829    -3.3682    -5.0159 H       
  48 H48            4.7114     0.7899     8.0993 H       
  49 H49            3.1996     0.7375     9.0374 H       
  50 H50            3.7097    -0.6814     8.0915 H       
@<TRIPOS>BOND
   1    1    2 1
   2    1    6 1
   3    1   26 1
   4    1   27 1
   5    2    3 1
   6    2   28 1
   7    2   29 1
   8    3    4 1
   9    3   30 1
  10    3   31 1
  11    4    5 1
  12    4    7 1
  13    4   32 1
  14    5    6 1
  15    5    9 1
  16    5   33 1
  17    6   10 1
  18    6   11 1
  19    7    8 1
  20    7   12 am
  21    8    9 1
  22    8   34 1
  23    8   35 1
  24    9   36 1
  25    9   37 1
  26   10   38 1
  27   11   14 3
  28   12   21 1
  29   12   13 2
  30   14   15 1
  31   15   16 ar
  32   15   17 ar
  33   16   20 ar
  34   16   39 1
  35   17   18 ar
  36   17   40 1
  37   18   19 ar
  38   18   41 1
  39   19   20 ar
  40   19   42 1
  41   20   24 1
  42   21   23 1
  43   22   23 1
  44   22   43 1
  45   22   44 1
  46   22   45 1
  47   23   46 1
  48   23   47 1
  49   24   25 1
  50   25   48 1
  51   25   49 1
  52   25   50 1

#	End of record

