#	Name: ASD03092359
#	Creating user name:	WinNT
#	Creation time:	15. 06. 2019 20:32

#	Modifying user name:	WinNT
#	Modification time:	15. 06. 2019 20:32

#	Program:	/corina/corina34_cracker 3.40 0067  02.08.2006

@<TRIPOS>MOLECULE
ASD03092359
  53   56    0    0    0
SMALL
NO_CHARGES


@<TRIPOS>ATOM
   1 C1            -0.1120     1.2348    -0.7222 C.3     
   2 C2            -0.1590    -0.2895    -0.9197 C.3     
   3 C3             1.2706    -0.3279    -0.3543 C.3     
   4 C4             1.4173     1.1239    -0.8398 C.3     
   5 C5            -0.7493     2.0092    -1.8470 C.2     
   6 O6            -1.2351     1.4205    -2.7895 O.2     
   7 N7            -0.7796     3.3560    -1.8055 N.am    
   8 C8            -1.3992     4.1088    -2.8990 C.3     
   9 S9            -1.7708     7.9591    -1.8817 S.3     
  10 C10           -0.2751     7.5645    -2.6092 C.2     
  11 N11           -0.2381     6.3003    -2.9065 N.2     
  12 C12           -1.3015     5.5848    -2.6111 C.2     
  13 C13           -2.2979     6.2845    -2.0292 C.2     
  14 N14            0.7492     8.4627    -2.8475 N.3     
  15 C15            0.3840     9.8116    -2.3909 C.3     
  16 C16            1.5650    10.7588    -2.6185 C.3     
  17 O17            1.9287    10.7354    -4.0014 O.3     
  18 C18            2.2909     9.4371    -4.4796 C.3     
  19 C19            1.1172     8.4765    -4.2708 C.3     
  20 C20           -5.9901     5.8456    -1.5008 C.ar    
  21 C21           -4.7975     6.3871    -1.9290 C.ar    
  22 C22           -3.5995     5.7425    -1.5929 C.ar    
  23 C23           -3.6721     4.5684    -0.8313 C.ar    
  24 C24           -4.9086     4.0978    -0.4460 C.ar    
  25 N25           -6.0132     4.7368    -0.7846 N.ar    
  26 C26           -5.0014     2.8361     0.3729 C.3     
  27 C27           -7.2856     6.5319    -1.8497 C.3     
  28 H28           -0.4519     1.5583     0.2616 H       
  29 H29           -0.8924    -0.7894    -0.2869 H       
  30 H30           -0.2235    -0.5927    -1.9647 H       
  31 H31            1.3086    -0.4316     0.7301 H       
  32 H32            1.9257    -1.0294    -0.8708 H       
  33 H33            1.7837     1.2072    -1.8630 H       
  34 H34            1.9565     1.7651    -0.1425 H       
  35 H35           -0.3911     3.8268    -1.0517 H       
  36 H36           -0.8823     3.8856    -3.8323 H       
  37 H37           -2.4477     3.8244    -2.9873 H       
  38 H38           -0.4798    10.1650    -2.9539 H       
  39 H39            0.1400     9.7827    -1.3289 H       
  40 H40            1.2793    11.7716    -2.3344 H       
  41 H41            2.4124    10.4358    -2.0138 H       
  42 H42            2.5302     9.4940    -5.5415 H       
  43 H43            3.1594     9.0757    -3.9290 H       
  44 H44            1.4085     7.4730    -4.5811 H       
  45 H45            0.2651     8.8086    -4.8639 H       
  46 H46           -4.7863     7.2943    -2.5149 H       
  47 H47           -2.7727     4.0403    -0.5510 H       
  48 H48           -4.9664     3.0875     1.4329 H       
  49 H49           -5.9393     2.3271     0.1510 H       
  50 H50           -4.1655     2.1811     0.1270 H       
  51 H51           -7.6576     6.1451    -2.7985 H       
  52 H52           -8.0199     6.3417    -1.0669 H       
  53 H53           -7.1164     7.6052    -1.9362 H       
@<TRIPOS>BOND
   1    1    2 1
   2    1    4 1
   3    1    5 1
   4    1   28 1
   5    2    3 1
   6    2   29 1
   7    2   30 1
   8    3    4 1
   9    3   31 1
  10    3   32 1
  11    4   33 1
  12    4   34 1
  13    5    6 2
  14    5    7 am
  15    7    8 1
  16    7   35 1
  17    8   12 1
  18    8   36 1
  19    8   37 1
  20    9   10 1
  21    9   13 1
  22   10   11 2
  23   10   14 1
  24   11   12 1
  25   12   13 2
  26   13   22 1
  27   14   15 1
  28   14   19 1
  29   15   16 1
  30   15   38 1
  31   15   39 1
  32   16   17 1
  33   16   40 1
  34   16   41 1
  35   17   18 1
  36   18   19 1
  37   18   42 1
  38   18   43 1
  39   19   44 1
  40   19   45 1
  41   20   21 ar
  42   20   25 ar
  43   20   27 1
  44   21   22 ar
  45   21   46 1
  46   22   23 ar
  47   23   24 ar
  48   23   47 1
  49   24   25 ar
  50   24   26 1
  51   26   48 1
  52   26   49 1
  53   26   50 1
  54   27   51 1
  55   27   52 1
  56   27   53 1

#	End of record

