#	Name: ASD01670031
#	Creating user name:	WinNT
#	Creation time:	15. 06. 2019 19:22

#	Modifying user name:	WinNT
#	Modification time:	15. 06. 2019 19:22

#	Program:	/corina/corina34_cracker 3.40 0067  02.08.2006

@<TRIPOS>MOLECULE
ASD01670031
  56   59    0    0    0
SMALL
NO_CHARGES


@<TRIPOS>ATOM
   1 C1            -0.0143     1.2041     0.0087 C.2     
   2 C2            -1.3253     4.0427     1.4451 C.2     
   3 C3            -1.9129     5.2204    -0.6732 C.ar    
   4 C4            -0.4092     6.8223    -1.6477 C.ar    
   5 C5             2.1221     7.9540    -1.9258 C.3     
   6 C6             1.7974     7.3654    -0.5506 C.3     
   7 C7             0.4891     6.6183    -0.6137 C.ar    
   8 C8            -1.5508     4.3526     2.8659 C.ar    
   9 C9            -1.8017     5.4820     4.9639 C.ar    
  10 C10           -2.0725     3.0968     4.8610 C.ar    
  11 C11           -1.9804     0.7166     2.7610 C.3     
  12 N12           -1.7588     2.1454     2.5249 N.pl3   
  13 C13           -1.4686     2.7020     1.3114 C.2     
  14 C14           -1.3295     1.9397     0.0189 C.3     
  15 O15           -2.4010     1.0016    -0.0985 O.3     
  16 C16           -2.7874     0.7264    -1.4465 C.3     
  17 C17           -1.5950     0.1478    -2.2109 C.3     
  18 C18           -3.9357    -0.2848    -1.4515 C.3     
  19 C19           -3.2454     2.0214    -2.1203 C.3     
  20 O20            0.0021    -0.0041     0.0020 O.2     
  21 O21            1.1389     1.8910     0.0013 O.3     
  22 C22           -1.0088     5.0107     0.3675 C.ar    
  23 C23           -1.6116     6.1204    -1.6714 C.ar    
  24 O24           -0.1527     7.6974    -2.6556 O.3     
  25 C25            0.8714     8.6712    -2.4499 C.3     
  26 C26            0.1923     5.7148     0.3906 C.ar    
  27 C27           -1.5458     5.5303     3.6117 C.ar    
  28 C28           -2.0633     4.2688     5.5850 C.ar    
  29 C29           -1.8162     3.1235     3.4940 C.ar    
  30 H30           -2.8449     4.6752    -0.6989 H       
  31 H31            2.9432     8.6654    -1.8364 H       
  32 H32            2.4021     7.1540    -2.6111 H       
  33 H33            2.5917     6.6813    -0.2522 H       
  34 H34            1.7194     8.1710     0.1794 H       
  35 H35           -1.7984     6.3928     5.5442 H       
  36 H36           -2.2775     2.1582     5.3544 H       
  37 H37           -1.0318     0.2368     3.0019 H       
  38 H38           -2.6737     0.5890     3.5924 H       
  39 H39           -2.4005     0.2611     1.8643 H       
  40 H40           -1.3628     2.6361    -0.8190 H       
  41 H41           -1.2688    -0.7748    -1.7309 H       
  42 H42           -1.8898    -0.0621    -3.2391 H       
  43 H43           -0.7770     0.8682    -2.2073 H       
  44 H44           -4.7852     0.1274    -0.9070 H       
  45 H45           -4.2304    -0.4947    -2.4797 H       
  46 H46           -3.6094    -1.2074    -0.9715 H       
  47 H47           -2.4274     2.7418    -2.1167 H       
  48 H48           -3.5402     1.8115    -3.1485 H       
  49 H49           -4.0949     2.4336    -1.5757 H       
  50 H50            1.9569     1.3754    -0.0092 H       
  51 H51           -2.3118     6.2821    -2.4776 H       
  52 H52            0.5367     9.4072    -1.7189 H       
  53 H53            1.1008     9.1676    -3.3928 H       
  54 H54            0.8947     5.5545     1.1952 H       
  55 H55           -1.3418     6.4759     3.1315 H       
  56 H56           -2.2619     4.2433     6.6463 H       
@<TRIPOS>BOND
   1    1   20 2
   2    1   21 1
   3    1   14 1
   4    2   22 1
   5    2   13 2
   6    2    8 1
   7    3   23 ar
   8    3   22 ar
   9    3   30 1
  10    4   24 1
  11    4    7 ar
  12    4   23 ar
  13    5   31 1
  14    5   32 1
  15    5    6 1
  16    5   25 1
  17    6   33 1
  18    6   34 1
  19    6    7 1
  20    7   26 ar
  21    8   27 ar
  22    8   29 ar
  23    9   27 ar
  24    9   35 1
  25    9   28 ar
  26   10   29 ar
  27   10   36 1
  28   10   28 ar
  29   11   37 1
  30   11   38 1
  31   11   39 1
  32   11   12 1
  33   12   13 1
  34   12   29 1
  35   13   14 1
  36   14   40 1
  37   14   15 1
  38   15   16 1
  39   16   17 1
  40   16   18 1
  41   16   19 1
  42   17   41 1
  43   17   42 1
  44   17   43 1
  45   18   44 1
  46   18   45 1
  47   18   46 1
  48   19   47 1
  49   19   48 1
  50   19   49 1
  51   21   50 1
  52   22   26 ar
  53   23   51 1
  54   24   25 1
  55   25   52 1
  56   25   53 1
  57   26   54 1
  58   27   55 1
  59   28   56 1

#	End of record

