#	Name: ASD01918585
#	Creating user name:	WinNT
#	Creation time:	15. 06. 2019 20:11

#	Modifying user name:	WinNT
#	Modification time:	15. 06. 2019 20:11

#	Program:	/corina/corina34_cracker 3.40 0067  02.08.2006

@<TRIPOS>MOLECULE
ASD01918585
  39   41    0    0    0
SMALL
NO_CHARGES


@<TRIPOS>ATOM
   1 C1             1.8547    -3.4955    -2.4892 C.3     
   2 C2             1.8293    -2.5797    -1.2927 C.ar    
   3 C3             2.0409    -1.2263    -1.4658 C.ar    
   4 C4             2.0164    -0.3874    -0.3597 C.ar    
   5 C5             1.7788    -0.9430     0.8849 C.ar    
   6 C6             1.5739    -2.3148     0.9853 C.ar    
   7 N7             1.3336    -2.8874     2.2323 N.am    
   8 C8             1.0061    -4.1916     2.3232 C.2     
   9 O9             0.8352    -4.8468     1.3143 O.2     
  10 C10            0.8545    -4.8262     3.6531 C.ar    
  11 C11            0.5219    -6.1740     3.7396 C.ar    
  12 C12            0.3832    -6.7554     4.9975 C.ar    
  13 O13            0.0600    -8.0677     5.1251 O.3     
  14 C14           -0.2541    -8.7781     3.9256 C.3     
  15 C15            0.8471    -9.7568     3.4759 C.3     
  16 O16            0.1339   -10.7392     4.2537 O.3     
  17 C17           -1.1187   -10.0323     4.1538 C.3     
  18 C18            0.5845    -5.9583     6.1204 C.ar    
  19 C19            0.9133    -4.6248     5.9538 C.ar    
  20 C20            1.1324    -3.7571     7.1663 C.3     
  21 N21            1.0428    -4.1043     4.7522 N.ar    
  22 N22            1.5997    -3.0807    -0.0940 N.ar    
  23 H23            0.8521    -3.5712    -2.9102 H       
  24 H24            2.5347    -3.0933    -3.2402 H       
  25 H25            2.1956    -4.4844    -2.1827 H       
  26 H26            2.2241    -0.8244    -2.4513 H       
  27 H27            2.1793     0.6746    -0.4683 H       
  28 H28            1.7532    -0.3198     1.7666 H       
  29 H29            1.4021    -2.3474     3.0352 H       
  30 H30            0.3732    -6.7605     2.8450 H       
  31 H31           -0.6209    -8.1295     3.1301 H       
  32 H32            0.8475    -9.9581     2.4046 H       
  33 H33            1.8360    -9.5179     3.8670 H       
  34 H34           -1.6888   -10.0119     5.0826 H       
  35 H35           -1.7184   -10.3177     3.2896 H       
  36 H36            0.4848    -6.3762     7.1113 H       
  37 H37            2.1829    -3.7943     7.4547 H       
  38 H38            0.8562    -2.7290     6.9320 H       
  39 H39            0.5166    -4.1203     7.9891 H       
@<TRIPOS>BOND
   1    1    2 1
   2    1   23 1
   3    1   24 1
   4    1   25 1
   5    2   22 ar
   6    2    3 ar
   7    3    4 ar
   8    3   26 1
   9    4    5 ar
  10    4   27 1
  11    5    6 ar
  12    5   28 1
  13    6    7 1
  14    6   22 ar
  15    7    8 am
  16    7   29 1
  17    8    9 2
  18    8   10 1
  19   10   21 ar
  20   10   11 ar
  21   11   12 ar
  22   11   30 1
  23   12   13 1
  24   12   18 ar
  25   13   14 1
  26   14   17 1
  27   14   15 1
  28   14   31 1
  29   15   16 1
  30   15   32 1
  31   15   33 1
  32   16   17 1
  33   17   34 1
  34   17   35 1
  35   18   19 ar
  36   18   36 1
  37   19   20 1
  38   19   21 ar
  39   20   37 1
  40   20   38 1
  41   20   39 1

#	End of record

