#	Name: ASD01910654
#	Creating user name:	WinNT
#	Creation time:	15. 06. 2019 19:56

#	Modifying user name:	WinNT
#	Modification time:	15. 06. 2019 19:56

#	Program:	/corina/corina34_cracker 3.40 0067  02.08.2006

@<TRIPOS>MOLECULE
ASD01910654
  53   56    0    0    0
SMALL
NO_CHARGES


@<TRIPOS>ATOM
   1 C1            -0.0167     1.3797     0.0096 C.ar    
   2 C2             0.0021    -0.0041     0.0020 C.ar    
   3 C3             1.2058    -0.6866    -0.0127 C.ar    
   4 C4             2.3967     0.0088    -0.0198 C.ar    
   5 C5             2.3858     1.4064    -0.0127 C.ar    
   6 C6             1.1661     2.0888     0.0021 C.ar    
   7 C7             3.6182     2.1357    -0.0195 C.1     
   8 C8             4.6285     2.7335    -0.0252 C.1     
   9 C9             5.8609     3.4628    -0.0321 C.ar    
  10 C10            5.8452     4.8624    -0.0249 C.ar    
  11 C11            7.0210     5.5549    -0.0307 C.ar    
  12 C12            8.2385     4.8661    -0.0297 C.ar    
  13 C13            8.2565     3.4703    -0.0444 C.ar    
  14 C14            7.0800     2.7753    -0.0401 C.ar    
  15 C15            7.0232     7.0610    -0.0587 C.3     
  16 C16            8.2203     7.5977     0.7219 C.3     
  17 N17            9.4581     6.9535     0.2890 N.am    
  18 C18            9.4970     5.6374     0.0082 C.2     
  19 O19           10.5594     5.0886    -0.2120 O.2     
  20 C20           10.6783     7.7537     0.1581 C.3     
  21 C21           11.4249     7.7489     1.4671 C.2     
  22 N22           12.5854     8.4243     1.5834 N.am    
  23 O23           10.9815     7.1373     2.4159 O.2     
  24 C24           13.3248     8.4290     2.8531 C.3     
  25 C25           13.5910     9.8808     3.2632 C.3     
  26 C26           14.3016    10.6078     2.1193 C.3     
  27 C27           13.4038    10.6129     0.8800 C.3     
  28 C28           13.1383     9.1648     0.4412 C.3     
  29 O29           14.5803    11.9536     2.5108 O.3     
  30 H30           -0.9600     1.9055     0.0169 H       
  31 H31           -0.9274    -0.5541     0.0079 H       
  32 H32            1.2127    -1.7666    -0.0182 H       
  33 H33            3.3354    -0.5251    -0.0306 H       
  34 H34            1.1499     3.1687     0.0074 H       
  35 H35            4.9046     5.3931    -0.0151 H       
  36 H36            9.1979     2.9412    -0.0549 H       
  37 H37            7.0908     1.6954    -0.0510 H       
  38 H38            7.0823     7.4034    -1.0918 H       
  39 H39            6.1023     7.4323     0.3911 H       
  40 H40            8.3004     8.6726     0.5602 H       
  41 H41            8.0697     7.4065     1.7844 H       
  42 H42           11.3098     7.3284    -0.6220 H       
  43 H43           10.4146     8.7778    -0.1060 H       
  44 H44           12.7323     7.9346     3.6228 H       
  45 H45           14.2725     7.9057     2.7260 H       
  46 H46           12.6447    10.3776     3.4778 H       
  47 H47           14.2212     9.8980     4.1524 H       
  48 H48           15.2360    10.0961     1.8887 H       
  49 H49           12.4593    11.1027     1.1170 H       
  50 H50           13.9008    11.1511     0.0729 H       
  51 H51           14.0717     8.7042     0.1175 H       
  52 H52           12.4209     9.1573    -0.3794 H       
  53 H53           15.0312    12.4751     1.8328 H       
@<TRIPOS>BOND
   1    1    2 ar
   2    1    6 ar
   3    1   30 1
   4    2    3 ar
   5    2   31 1
   6    3    4 ar
   7    3   32 1
   8    4    5 ar
   9    4   33 1
  10    5    6 ar
  11    5    7 1
  12    6   34 1
  13    7    8 3
  14    8    9 1
  15    9   10 ar
  16    9   14 ar
  17   10   11 ar
  18   10   35 1
  19   11   12 ar
  20   11   15 1
  21   12   13 ar
  22   12   18 1
  23   13   14 ar
  24   13   36 1
  25   14   37 1
  26   15   16 1
  27   15   38 1
  28   15   39 1
  29   16   17 1
  30   16   40 1
  31   16   41 1
  32   17   18 am
  33   17   20 1
  34   18   19 2
  35   20   21 1
  36   20   42 1
  37   20   43 1
  38   21   22 am
  39   21   23 2
  40   22   24 1
  41   22   28 1
  42   24   25 1
  43   24   44 1
  44   24   45 1
  45   25   26 1
  46   25   46 1
  47   25   47 1
  48   26   27 1
  49   26   29 1
  50   26   48 1
  51   27   28 1
  52   27   49 1
  53   27   50 1
  54   28   51 1
  55   28   52 1
  56   29   53 1

#	End of record

