#	Name: ASD03430472
#	Creating user name:	WinNT
#	Creation time:	15. 06. 2019 20:41

#	Modifying user name:	WinNT
#	Modification time:	15. 06. 2019 20:41

#	Program:	/corina/corina34_cracker 3.40 0067  02.08.2006

@<TRIPOS>MOLECULE
ASD03430472
  30   32    0    0    0
SMALL
NO_CHARGES


@<TRIPOS>ATOM
   1 N1            -0.0162     1.3400     0.0094 N.am    
   2 C2             0.0021    -0.0041     0.0020 C.2     
   3 C3             1.4384    -0.4360    -0.0140 C.2     
   4 C4             2.2101     0.8206    -0.0146 C.ar    
   5 C5             3.5768     1.0987    -0.0262 C.ar    
   6 C6             4.0078     2.4097    -0.0232 C.ar    
   7 C7             3.0860     3.4433    -0.0084 C.ar    
   8 C8             1.7293     3.1787     0.0035 C.ar    
   9 C9             1.2733     1.8668    -0.0001 C.ar    
  10 O10           -0.9664    -0.7345     0.0077 O.2     
  11 O11            1.8703    -1.5700    -0.0236 O.2     
  12 C12           -1.2377     2.1486     0.0198 C.3     
  13 O13           -1.9343     1.1867     2.1338 O.3     
  14 C14           -1.6556     2.4228     1.4659 C.3     
  15 C15           -2.9486     3.2661     1.4865 C.3     
  16 C16           -3.7340     2.6362     2.6690 C.3     
  17 C17           -3.3099     1.1511     2.5459 C.3     
  18 H18            4.2945     0.2917    -0.0370 H       
  19 H19            5.0651     2.6299    -0.0321 H       
  20 H20            3.4308     4.4667    -0.0059 H       
  21 H21            1.0218     3.9945     0.0154 H       
  22 H22           -1.0521     3.0939    -0.4902 H       
  23 H23           -2.0346     1.6096    -0.4927 H       
  24 H24           -0.8594     2.9538     1.9877 H       
  25 H25           -2.7248     4.3144     1.6840 H       
  26 H26           -3.4990     3.1551     0.5523 H       
  27 H27           -3.4147     3.0583     3.6219 H       
  28 H28           -4.8093     2.7504     2.5316 H       
  29 H29           -3.9168     0.6453     1.7950 H       
  30 H30           -3.4033     0.6498     3.5093 H       
@<TRIPOS>BOND
   1    1    2 am
   2    1    9 1
   3    1   12 1
   4    2    3 1
   5    2   10 2
   6    3    4 1
   7    3   11 2
   8    4    5 ar
   9    4    9 ar
  10    5    6 ar
  11    5   18 1
  12    6    7 ar
  13    6   19 1
  14    7    8 ar
  15    7   20 1
  16    8    9 ar
  17    8   21 1
  18   12   14 1
  19   12   22 1
  20   12   23 1
  21   13   14 1
  22   13   17 1
  23   14   15 1
  24   14   24 1
  25   15   16 1
  26   15   25 1
  27   15   26 1
  28   16   17 1
  29   16   27 1
  30   16   28 1
  31   17   29 1
  32   17   30 1

#	End of record

