#	Name: ASD02198797
#	Creating user name:	WinNT
#	Creation time:	15. 06. 2019 20:20

#	Modifying user name:	WinNT
#	Modification time:	15. 06. 2019 20:20

#	Program:	/corina/corina34_cracker 3.40 0067  02.08.2006

@<TRIPOS>MOLECULE
ASD02198797
  45   49    0    0    0
SMALL
NO_CHARGES


@<TRIPOS>ATOM
   1 F1             2.2521    -1.7148     2.4708 F       
   2 C2            -0.0432     1.5016    -0.1150 C.2     
   3 C3            -0.0730     0.1619     0.0975 C.2     
   4 N4             1.0715    -0.5397     0.2599 N.pl3   
   5 N5             2.2359    -0.0050     0.2262 N.2     
   6 C6             2.4075     1.2843     0.0280 C.2     
   7 C7             1.2217     2.1356    -0.1605 C.2     
   8 C8             0.9799    -1.9191     0.4760 C.ar    
   9 C9             1.5795    -2.4900     1.5923 C.ar    
  10 C10            1.4856    -3.8600     1.8020 C.ar    
  11 C11            0.7939    -4.6533     0.8967 C.ar    
  12 C12            0.1993    -4.0821    -0.2127 C.ar    
  13 C13            0.2846    -2.7195    -0.4222 C.ar    
  14 C14            3.7646     1.8664    -0.0046 C.2     
  15 N15            4.3065     2.6065    -1.0177 N.pl3   
  16 N16            5.6084     2.9580    -0.6400 N.2     
  17 C17            5.8523     2.4584     0.5453 C.2     
  18 C18            4.7204     1.7707     0.9829 C.2     
  19 C19            3.6734     2.9513    -2.2186 C.ar    
  20 C20            3.8071     4.2345    -2.7323 C.ar    
  21 C21            3.1820     4.5712    -3.9169 C.ar    
  22 C22            2.4236     3.6321    -4.5914 C.ar    
  23 C23            2.2884     2.3534    -4.0825 C.ar    
  24 C24            2.9153     2.0089    -2.9011 C.ar    
  25 O25            1.3247     3.3386    -0.3483 O.2     
  26 N26            2.0893    -4.4412     2.9268 N.pl3   
  27 N27            2.8140    -3.7638     3.9159 N.2     
  28 C28            2.0698    -5.7535     3.2514 C.2     
  29 C29            2.7637    -5.9030     4.4037 C.2     
  30 C30            3.2194    -4.6407     4.7989 C.2     
  31 H31           -0.9546     2.0652    -0.2495 H       
  32 H32           -1.0228    -0.3505     0.1379 H       
  33 H33            0.7207    -5.7184     1.0594 H       
  34 H34           -0.3374    -4.7024    -0.9153 H       
  35 H35           -0.1817    -2.2770    -1.2901 H       
  36 H36            6.7758     2.5646     1.0951 H       
  37 H37            4.6147     1.2509     1.9237 H       
  38 H38            4.3991     4.9686    -2.2058 H       
  39 H39            3.2854     5.5692    -4.3167 H       
  40 H40            1.9354     3.8979    -5.5174 H       
  41 H41            1.6951     1.6222    -4.6114 H       
  42 H42            2.8094     1.0101    -2.5041 H       
  43 H43            1.5869    -6.5410     2.6919 H       
  44 H44            2.9329    -6.8323     4.9274 H       
  45 H45            3.8051    -4.4267     5.6807 H       
@<TRIPOS>BOND
   1    1    9 1
   2    2    3 2
   3    2    7 1
   4    2   31 1
   5    3    4 1
   6    3   32 1
   7    4    5 1
   8    4    8 1
   9    5    6 2
  10    6    7 1
  11    6   14 1
  12    7   25 2
  13    8    9 ar
  14    8   13 ar
  15    9   10 ar
  16   10   11 ar
  17   10   26 1
  18   11   12 ar
  19   11   33 1
  20   12   13 ar
  21   12   34 1
  22   13   35 1
  23   14   15 1
  24   14   18 2
  25   15   16 1
  26   15   19 1
  27   16   17 2
  28   17   18 1
  29   17   36 1
  30   18   37 1
  31   19   20 ar
  32   19   24 ar
  33   20   21 ar
  34   20   38 1
  35   21   22 ar
  36   21   39 1
  37   22   23 ar
  38   22   40 1
  39   23   24 ar
  40   23   41 1
  41   24   42 1
  42   26   27 1
  43   26   28 1
  44   27   30 2
  45   28   29 2
  46   28   43 1
  47   29   30 1
  48   29   44 1
  49   30   45 1

#	End of record

