#	Name: ASD01913850
#	Creating user name:	WinNT
#	Creation time:	15. 06. 2019 20:02

#	Modifying user name:	WinNT
#	Modification time:	15. 06. 2019 20:02

#	Program:	/corina/corina34_cracker 3.40 0067  02.08.2006

@<TRIPOS>MOLECULE
ASD01913850
  41   43    0    0    0
SMALL
NO_CHARGES


@<TRIPOS>ATOM
   1 C1            -0.0190     1.4278    -0.0132 C.ar    
   2 C2             0.0009    -0.0040    -0.0142 C.1     
   3 C3             0.0172    -1.1779    -0.0150 C.1     
   4 C4             0.0371    -2.6098    -0.0160 C.ar    
   5 C5            -1.1523    -3.3386     0.1332 C.ar    
   6 C6             0.1560    -5.3344    -0.0280 C.ar    
   7 N7             1.2611    -4.6186    -0.1726 N.ar    
   8 C8             1.2401    -3.3019    -0.1714 C.ar    
   9 C9            -1.0818    -4.7172     0.1259 C.ar    
  10 C10            1.1701     2.1463    -0.1624 C.ar    
  11 C11            1.1446     3.5256    -0.1606 C.ar    
  12 C12           -1.2394     3.4940     0.1313 C.ar    
  13 C13           -1.2284     2.1128     0.1313 C.ar    
  14 C14           -0.0544     4.1989    -0.0115 C.ar    
  15 N15            0.2331    -6.7251    -0.0364 N.am    
  16 C16            0.1552    -7.3618    -1.2099 C.2     
  17 O17            0.1743    -8.6992    -1.3203 O.3     
  18 C18            0.6539    -9.4538    -0.1733 C.3     
  19 C19           -0.0193    -8.8886     1.0849 C.3     
  20 C20            0.4013    -7.4220     1.2361 C.3     
  21 C21            0.2875   -10.9303    -0.3363 C.3     
  22 C22            2.1724    -9.3073    -0.0568 C.3     
  23 O23            0.0624    -6.6984    -2.2236 O.2     
  24 F24           -2.4071     4.1590     0.2708 F       
  25 H25           -2.0997    -2.8336     0.2513 H       
  26 H26            2.1619    -2.7522    -0.2920 H       
  27 H27           -1.9773    -5.3103     0.2387 H       
  28 H28            2.1075     1.6228    -0.2786 H       
  29 H29            2.0635     4.0812    -0.2755 H       
  30 H30           -2.1517     1.5638     0.2425 H       
  31 H31           -0.0679     5.2788    -0.0105 H       
  32 H32           -1.1025    -8.9552     0.9832 H       
  33 H33            0.3033    -9.4538     1.9593 H       
  34 H34            1.4451    -7.3749     1.5465 H       
  35 H35           -0.2215    -6.9428     1.9914 H       
  36 H36            0.7482   -11.3209    -1.2436 H       
  37 H37            0.6489   -11.4916     0.5253 H       
  38 H38           -0.7956   -11.0302    -0.4068 H       
  39 H39            2.4272    -8.2552     0.0711 H       
  40 H40            2.5272    -9.8742     0.8038 H       
  41 H41            2.6447    -9.6880    -0.9625 H       
@<TRIPOS>BOND
   1    1    2 1
   2    1   10 ar
   3    1   13 ar
   4    2    3 3
   5    3    4 1
   6    4    5 ar
   7    4    8 ar
   8    5    9 ar
   9    5   25 1
  10    6    7 ar
  11    6   15 1
  12    6    9 ar
  13    7    8 ar
  14    8   26 1
  15    9   27 1
  16   10   11 ar
  17   10   28 1
  18   11   14 ar
  19   11   29 1
  20   12   13 ar
  21   12   24 1
  22   12   14 ar
  23   13   30 1
  24   14   31 1
  25   15   16 am
  26   15   20 1
  27   16   17 1
  28   16   23 2
  29   17   18 1
  30   18   19 1
  31   18   21 1
  32   18   22 1
  33   19   20 1
  34   19   32 1
  35   19   33 1
  36   20   34 1
  37   20   35 1
  38   21   36 1
  39   21   37 1
  40   21   38 1
  41   22   39 1
  42   22   40 1
  43   22   41 1

#	End of record

