#	Name: ASD01720175
#	Creating user name:	WinNT
#	Creation time:	15. 06. 2019 19:23

#	Modifying user name:	WinNT
#	Modification time:	15. 06. 2019 19:23

#	Program:	/corina/corina34_cracker 3.40 0067  02.08.2006

@<TRIPOS>MOLECULE
ASD01720175
  50   52    0    0    0
SMALL
NO_CHARGES


@<TRIPOS>ATOM
   1 C1            -0.3427     1.1892    -0.2545 C.ar    
   2 N2            -0.1588    -0.1224    -0.2578 N.ar    
   3 C3             1.0081    -0.6469     0.0869 C.ar    
   4 N4             2.0319     0.1122     0.4470 N.ar    
   5 C5             1.9172     1.4356     0.4728 C.ar    
   6 C6             0.7007     2.0172     0.1146 C.ar    
   7 N7             2.9938     2.2294     0.8517 N.am    
   8 C8             2.9374     3.6736     1.1247 C.3     
   9 C9             4.3889     4.0339     1.4956 C.3     
  10 O10            5.1034     2.7682     1.3938 O.3     
  11 C11            4.2509     1.8025     1.0333 C.2     
  12 N12            1.1608    -2.0224     0.0707 N.pl3   
  13 C13            0.0400    -2.8792    -0.3242 C.3     
  14 C14            0.2049    -4.2411     0.2995 C.ar    
  15 C15            0.0146    -3.0156    -1.8478 C.3     
  16 C16            1.4659    -4.7104     0.6116 C.ar    
  17 C17            1.6178    -5.9601     1.1838 C.ar    
  18 C18            0.5086    -6.7428     1.4450 C.ar    
  19 C19           -0.7549    -6.2782     1.1342 C.ar    
  20 C20           -0.9104    -5.0224     0.5659 C.ar    
  21 C21            1.9959     3.9629     2.2955 C.3     
  22 C22            2.4994     3.2389     3.5458 C.3     
  23 C23            1.9580     5.4696     2.5592 C.3     
  24 O24            4.5864     0.6447     0.8812 O.2     
  25 O25           -2.1522    -4.5631     0.2593 O.3     
  26 C26           -3.2532    -5.4266     0.5496 C.3     
  27 H27           -1.2962     1.6075    -0.5413 H       
  28 H28            0.5770     3.0900     0.1257 H       
  29 H29            2.6228     4.2195     0.2352 H       
  30 H30            4.7946     4.7595     0.7907 H       
  31 H31            4.4386     4.4198     2.5138 H       
  32 H32            2.0099    -2.4191     0.3209 H       
  33 H33           -0.8950    -2.4343     0.0165 H       
  34 H34            0.9495    -3.4604    -2.1885 H       
  35 H35           -0.8193    -3.6531    -2.1417 H       
  36 H36           -0.1047    -2.0305    -2.2989 H       
  37 H37            2.3340    -4.1010     0.4082 H       
  38 H38            2.6047    -6.3254     1.4268 H       
  39 H39            0.6299    -7.7185     1.8919 H       
  40 H40           -1.6211    -6.8902     1.3381 H       
  41 H41            0.9935     3.6115     2.0511 H       
  42 H42            3.4577     3.6607     3.8488 H       
  43 H43            1.7769     3.3618     4.3526 H       
  44 H44            2.6224     2.1782     3.3267 H       
  45 H45            1.6922     5.9926     1.6406 H       
  46 H46            1.2158     5.6853     3.3279 H       
  47 H47            2.9388     5.8041     2.8971 H       
  48 H48           -3.1404    -6.3582    -0.0050 H       
  49 H49           -3.2755    -5.6402     1.6182 H       
  50 H50           -4.1836    -4.9399     0.2568 H       
@<TRIPOS>BOND
   1    1    2 ar
   2    1    6 ar
   3    1   27 1
   4    2    3 ar
   5    3    4 ar
   6    3   12 1
   7    4    5 ar
   8    5    6 ar
   9    5    7 1
  10    6   28 1
  11    7    8 1
  12    7   11 am
  13    8    9 1
  14    8   21 1
  15    8   29 1
  16    9   10 1
  17    9   30 1
  18    9   31 1
  19   10   11 1
  20   11   24 2
  21   12   13 1
  22   12   32 1
  23   13   14 1
  24   13   15 1
  25   13   33 1
  26   14   16 ar
  27   14   20 ar
  28   15   34 1
  29   15   35 1
  30   15   36 1
  31   16   17 ar
  32   16   37 1
  33   17   18 ar
  34   17   38 1
  35   18   19 ar
  36   18   39 1
  37   19   20 ar
  38   19   40 1
  39   20   25 1
  40   21   22 1
  41   21   23 1
  42   21   41 1
  43   22   42 1
  44   22   43 1
  45   22   44 1
  46   23   45 1
  47   23   46 1
  48   23   47 1
  49   25   26 1
  50   26   48 1
  51   26   49 1
  52   26   50 1

#	End of record

