#	Name: ASD00730004
#	Creating user name:	WinNT
#	Creation time:	15. 06. 2019 18:37

#	Modifying user name:	WinNT
#	Modification time:	15. 06. 2019 18:37

#	Program:	/corina/corina34_cracker 3.40 0067  02.08.2006

@<TRIPOS>MOLECULE
ASD00730004
  54   55    0    0    0
SMALL
NO_CHARGES


@<TRIPOS>ATOM
   1 C1            -0.0169     1.3918     0.0097 C.ar    
   2 C2             0.0021    -0.0041     0.0020 C.ar    
   3 C3            -1.1916    -0.6925     0.0102 C.ar    
   4 N4            -2.3451    -0.0501     0.0247 N.ar    
   5 C5            -2.4078     1.2726     0.0324 C.ar    
   6 C6            -1.2512     2.0359     0.0308 C.ar    
   7 O7            -3.6174     1.8870     0.0524 O.3     
   8 C8            -4.7297     1.1062     0.0533 C.ar    
   9 C9            -5.2865     0.6913     1.2545 C.ar    
  10 C10           -6.4172    -0.1024     1.2527 C.ar    
  11 C11           -6.9936    -0.4837     0.0551 C.ar    
  12 C12           -6.4407    -0.0717    -1.1433 C.ar    
  13 C13           -5.3137     0.7272    -1.1469 C.ar    
  14 N14            1.1685     2.1214     0.0023 N.pl3   
  15 C15            2.4572     1.4249    -0.0138 C.3     
  16 C16            3.5216     2.3359    -0.6287 C.3     
  17 C17            2.8598     1.0641     1.4176 C.3     
  18 C18            1.8616     0.0553     1.9892 C.3     
  19 C19            3.1836     2.5955    -2.0981 C.3     
  20 C20           -1.1804    -2.1995     0.0020 C.3     
  21 C21           -1.3283     3.5409     0.0404 C.3     
  22 C22           -4.6582     1.1058     2.5601 C.3     
  23 C23           -4.7152     1.1811    -2.4533 C.3     
  24 C24           -8.2265    -1.3505     0.0561 C.3     
  25 H25            0.9408    -0.5379    -0.0105 H       
  26 H26           -6.8510    -0.4256     2.1874 H       
  27 H27           -6.8929    -0.3709    -2.0773 H       
  28 H28            1.1412     3.0910     0.0078 H       
  29 H29            2.3710     0.5148    -0.6073 H       
  30 H30            3.5458     3.2824    -0.0887 H       
  31 H31            4.4966     1.8533    -0.5600 H       
  32 H32            3.8579     0.6260     1.4148 H       
  33 H33            2.8597     1.9639     2.0328 H       
  34 H34            0.8635     0.4934     1.9920 H       
  35 H35            1.8618    -0.8445     1.3740 H       
  36 H36            2.1484    -0.2017     3.0089 H       
  37 H37            3.1594     1.6490    -2.6381 H       
  38 H38            2.2086     3.0781    -2.1668 H       
  39 H39            3.9419     3.2445    -2.5362 H       
  40 H40           -1.1674    -2.5683     1.0276 H       
  41 H41           -2.0727    -2.5667    -0.5050 H       
  42 H42           -0.2929    -2.5534    -0.5226 H       
  43 H43           -1.3614     3.9095    -0.9849 H       
  44 H44           -2.2283     3.8552     0.5688 H       
  45 H45           -0.4509     3.9464     0.5441 H       
  46 H46           -5.0968     2.0469     2.8918 H       
  47 H47           -4.8387     0.3362     3.3106 H       
  48 H48           -3.5846     1.2340     2.4220 H       
  49 H49           -3.9805     0.4496    -2.7900 H       
  50 H50           -5.5030     1.2753    -3.2007 H       
  51 H51           -4.2290     2.1467    -2.3142 H       
  52 H52           -9.1146    -0.7188     0.0732 H       
  53 H53           -8.2371    -1.9682    -0.8419 H       
  54 H54           -8.2194    -1.9913     0.9378 H       
@<TRIPOS>BOND
   1    1    2 ar
   2    1   14 1
   3    1    6 ar
   4    2    3 ar
   5    2   25 1
   6    3    4 ar
   7    3   20 1
   8    4    5 ar
   9    5    6 ar
  10    5    7 1
  11    6   21 1
  12    7    8 1
  13    8    9 ar
  14    8   13 ar
  15    9   10 ar
  16    9   22 1
  17   10   11 ar
  18   10   26 1
  19   11   12 ar
  20   11   24 1
  21   12   13 ar
  22   12   27 1
  23   13   23 1
  24   14   15 1
  25   14   28 1
  26   15   16 1
  27   15   17 1
  28   15   29 1
  29   16   19 1
  30   16   30 1
  31   16   31 1
  32   17   18 1
  33   17   32 1
  34   17   33 1
  35   18   34 1
  36   18   35 1
  37   18   36 1
  38   19   37 1
  39   19   38 1
  40   19   39 1
  41   20   40 1
  42   20   41 1
  43   20   42 1
  44   21   43 1
  45   21   44 1
  46   21   45 1
  47   22   46 1
  48   22   47 1
  49   22   48 1
  50   23   49 1
  51   23   50 1
  52   23   51 1
  53   24   52 1
  54   24   53 1
  55   24   54 1

#	End of record

