#	Name: ASD01410004
#	Creating user name:	WinNT
#	Creation time:	15. 06. 2019 19:16

#	Modifying user name:	WinNT
#	Modification time:	15. 06. 2019 19:16

#	Program:	/corina/corina34_cracker 3.40 0067  02.08.2006

@<TRIPOS>MOLECULE
ASD01410004
  65   69    0    0    0
SMALL
NO_CHARGES


@<TRIPOS>ATOM
   1 C1            -0.0246     1.4505     0.0607 C.3     
   2 C2             0.0015    -0.0732     0.1937 C.3     
   3 O3             0.8618    -0.4309     1.2851 O.3     
   4 C4             2.1549    -0.0453     1.1299 C.2     
   5 C5             2.4022     1.2917     0.5762 C.2     
   6 C6             1.3765     1.9983     0.0650 C.2     
   7 C7            -1.4133    -0.5878     0.4668 C.3     
   8 C8            -1.9672     0.0038     1.7868 C.3     
   9 C9            -3.4992    -0.0760     1.6235 C.3     
  10 C10           -3.7788    -0.1101     0.1108 C.3     
  11 C11           -2.4070    -0.0499    -0.5924 C.3     
  12 C12            0.5327    -0.6914    -1.1011 C.3     
  13 C13            0.5650    -2.2149    -0.9631 C.3     
  14 C14            1.2078    -2.8165    -2.1862 C.ar    
  15 C15            2.5745    -3.0213    -2.2173 C.ar    
  16 C16            3.1668    -3.5728    -3.3375 C.ar    
  17 C17            2.3892    -3.9211    -4.4314 C.ar    
  18 C18            1.0165    -3.7146    -4.3983 C.ar    
  19 C19            0.4285    -3.1679    -3.2733 C.ar    
  20 Cl20           0.0391    -4.1493    -5.7656 Cl      
  21 O21            2.9697    -4.4633    -5.5344 O.3     
  22 C22            4.3865    -4.6465    -5.4982 C.3     
  23 O23            1.6101     3.2236    -0.4543 O.3     
  24 S24            4.0297     1.9671     0.5812 S.3     
  25 O25            3.0739    -0.7802     1.4386 O.2     
  26 C26            4.3728     2.1615     2.2985 C.2     
  27 N27            3.5081     1.9379     3.2859 N.2     
  28 C28            4.0905     2.1805     4.4553 C.2     
  29 N29            5.3740     2.5730     4.1981 N.pl3   
  30 N30            5.5274     2.5456     2.8057 N.2     
  31 N31            3.6479     2.1043     5.7157 N.2     
  32 C32            4.4339     2.4036     6.7256 C.2     
  33 C33            5.7535     2.8094     6.4969 C.2     
  34 C34            6.2115     2.8887     5.2200 C.2     
  35 C35            7.6277     3.3222     4.9415 C.3     
  36 C36            3.9117     2.3098     8.1361 C.3     
  37 H37           -0.5157     1.7229    -0.8735 H       
  38 H38           -0.5811     1.8762     0.8956 H       
  39 H39           -1.4275    -1.6773     0.4959 H       
  40 H40           -1.6427    -0.5940     2.6385 H       
  41 H41           -1.6494     1.0399     1.9034 H       
  42 H42           -3.8780    -0.9833     2.0938 H       
  43 H43           -3.9684     0.8006     2.0703 H       
  44 H44           -4.2934    -1.0340    -0.1531 H       
  45 H45           -4.3838     0.7499    -0.1766 H       
  46 H46           -2.1603     0.9775    -0.8600 H       
  47 H47           -2.4035    -0.6868    -1.4770 H       
  48 H48           -0.1194    -0.4154    -1.9298 H       
  49 H49            1.5402    -0.3226    -1.2932 H       
  50 H50            1.1409    -2.4874    -0.0787 H       
  51 H51           -0.4528    -2.5924    -0.8646 H       
  52 H52            3.1801    -2.7496    -1.3654 H       
  53 H53            4.2348    -3.7321    -3.3609 H       
  54 H54           -0.6391    -3.0069    -3.2465 H       
  55 H55            4.8740    -3.6822    -5.3548 H       
  56 H56            4.6460    -5.3110    -4.6741 H       
  57 H57            4.7202    -5.0860    -6.4382 H       
  58 H58            2.5457     3.4665    -0.4836 H       
  59 H59            6.4006     3.0559     7.3256 H       
  60 H60            8.1356     3.5310     5.8831 H       
  61 H61            8.1538     2.5269     4.4135 H       
  62 H62            7.6179     4.2221     4.3266 H       
  63 H63            2.8727     1.9807     8.1177 H       
  64 H64            4.5101     1.5928     8.6982 H       
  65 H65            3.9745     3.2881     8.6126 H       
@<TRIPOS>BOND
   1    1    2 1
   2    1    6 1
   3    1   37 1
   4    1   38 1
   5    2    3 1
   6    2    7 1
   7    2   12 1
   8    3    4 1
   9    4    5 1
  10    4   25 2
  11    5    6 2
  12    5   24 1
  13    6   23 1
  14    7    8 1
  15    7   11 1
  16    7   39 1
  17    8    9 1
  18    8   40 1
  19    8   41 1
  20    9   10 1
  21    9   42 1
  22    9   43 1
  23   10   11 1
  24   10   44 1
  25   10   45 1
  26   11   46 1
  27   11   47 1
  28   12   13 1
  29   12   48 1
  30   12   49 1
  31   13   14 1
  32   13   50 1
  33   13   51 1
  34   14   15 ar
  35   14   19 ar
  36   15   16 ar
  37   15   52 1
  38   16   17 ar
  39   16   53 1
  40   17   18 ar
  41   17   21 1
  42   18   19 ar
  43   18   20 1
  44   19   54 1
  45   21   22 1
  46   22   55 1
  47   22   56 1
  48   22   57 1
  49   23   58 1
  50   24   26 1
  51   26   27 1
  52   26   30 2
  53   27   28 2
  54   28   29 1
  55   28   31 1
  56   29   30 1
  57   29   34 1
  58   31   32 2
  59   32   33 1
  60   32   36 1
  61   33   34 2
  62   33   59 1
  63   34   35 1
  64   35   60 1
  65   35   61 1
  66   35   62 1
  67   36   63 1
  68   36   64 1
  69   36   65 1

#	End of record

