#	Name: ASD07930785
#	Creating user name:	WinNT
#	Creation time:	15. 06. 2019 21:13

#	Modifying user name:	WinNT
#	Modification time:	15. 06. 2019 21:13

#	Program:	/corina/corina34_cracker 3.40 0067  02.08.2006

@<TRIPOS>MOLECULE
ASD07930785
  53   55    0    0    0
SMALL
NO_CHARGES


@<TRIPOS>ATOM
   1 C1            -0.0343     1.4582     0.0425 C.3     
   2 N2             0.7953    -0.4133    -2.1302 N.2     
   3 N3            -0.8904    -1.7835    -1.2685 N.pl3   
   4 C4            -0.9150    -2.8271    -0.2382 C.3     
   5 C5            -1.2300    -2.1885     1.1215 C.3     
   6 S6             0.0061    -0.8913     1.4435 S.o2    
   7 N7            -0.0141    -0.0067     0.0315 N.am    
   8 C8            -0.0113    -0.7260    -1.1551 C.2     
   9 C9             0.4500    -3.5153    -0.1755 C.3     
  10 C10           -1.9765    -3.8423    -0.5755 C.ar    
  11 C11           -2.8068    -3.6380    -1.6597 C.ar    
  12 C12           -3.7850    -4.5740    -1.9701 C.ar    
  13 C13           -3.9256    -5.7134    -1.1890 C.ar    
  14 C14           -3.0929    -5.9137    -0.1053 C.ar    
  15 C15           -2.1147    -4.9822     0.1989 C.ar    
  16 O16           -0.4577     0.0117     2.4378 O.2     
  17 O17            1.3140    -1.4440     1.5004 O.2     
  18 N18           -4.6278    -4.3689    -3.0681 N.am    
  19 C19           -5.0478    -5.4192    -3.8008 C.2     
  20 C20           -6.0324    -5.2170    -4.8886 C.ar    
  21 O21           -4.6185    -6.5323    -3.5689 O.2     
  22 N22           -6.5035    -3.9996    -5.1440 N.ar    
  23 C23           -7.3797    -3.8235    -6.1128 C.ar    
  24 C24           -7.8113    -4.9053    -6.8664 C.ar    
  25 N25           -7.3469    -6.1169    -6.6166 N.ar    
  26 C26           -6.4641    -6.3015    -5.6518 C.ar    
  27 C27           -8.8133    -4.6981    -7.9728 C.3     
  28 F28           -1.3013    -5.1800     1.2593 F       
  29 C29           -8.2508    -5.2568    -9.2814 C.3     
  30 C30           -9.2680    -5.0464   -10.4048 C.3     
  31 Cl31          -8.6051    -5.7048   -11.9468 Cl      
  32 H32            0.9882     1.8357     0.0394 H       
  33 H33           -0.5582     1.8209    -0.8419 H       
  34 H34           -0.5480     1.8078     0.9380 H       
  35 H35            1.4070     0.3331    -2.0331 H       
  36 H36           -1.4884    -1.8387    -2.0302 H       
  37 H37           -2.2270    -1.7484     1.0987 H       
  38 H38           -1.1800    -2.9460     1.9037 H       
  39 H39            1.2165    -2.7804     0.0704 H       
  40 H40            0.4311    -4.2908     0.5903 H       
  41 H41            0.6749    -3.9651    -1.1426 H       
  42 H42           -2.6960    -2.7510    -2.2657 H       
  43 H43           -4.6858    -6.4423    -1.4284 H       
  44 H44           -3.2019    -6.7998     0.5025 H       
  45 H45           -4.9098    -3.4707    -3.3019 H       
  46 H46           -7.7626    -2.8352    -6.3201 H       
  47 H47           -6.0843    -7.2918    -5.4480 H       
  48 H48           -9.7400    -5.2158    -7.7254 H       
  49 H49           -9.0119    -3.6326    -8.0883 H       
  50 H50           -7.3240    -4.7392    -9.5289 H       
  51 H51           -8.0521    -6.3223    -9.1659 H       
  52 H52          -10.1948    -5.5641   -10.1573 H       
  53 H53           -9.4666    -3.9809   -10.5202 H       
@<TRIPOS>BOND
   1    1    7 1
   2    1   32 1
   3    1   33 1
   4    1   34 1
   5    2    8 2
   6    2   35 1
   7    3    4 1
   8    3    8 1
   9    3   36 1
  10    4    5 1
  11    4    9 1
  12    4   10 1
  13    5    6 1
  14    5   37 1
  15    5   38 1
  16    6    7 am
  17    6   16 2
  18    6   17 2
  19    7    8 1
  20    9   39 1
  21    9   40 1
  22    9   41 1
  23   10   11 ar
  24   10   15 ar
  25   11   12 ar
  26   11   42 1
  27   12   13 ar
  28   12   18 1
  29   13   14 ar
  30   13   43 1
  31   14   15 ar
  32   14   44 1
  33   15   28 1
  34   18   19 am
  35   18   45 1
  36   19   20 1
  37   19   21 2
  38   20   22 ar
  39   20   26 ar
  40   22   23 ar
  41   23   24 ar
  42   23   46 1
  43   24   25 ar
  44   24   27 1
  45   25   26 ar
  46   26   47 1
  47   27   29 1
  48   27   48 1
  49   27   49 1
  50   29   30 1
  51   29   50 1
  52   29   51 1
  53   30   31 1
  54   30   52 1
  55   30   53 1

#	End of record

