#	Name: ASD09610007
#	Creating user name:	WinNT
#	Creation time:	15. 06. 2019 21:22

#	Modifying user name:	WinNT
#	Modification time:	15. 06. 2019 21:22

#	Program:	/corina/corina34_cracker 3.40 0067  02.08.2006

@<TRIPOS>MOLECULE
ASD09610007
  35   37    0    0    0
SMALL
NO_CHARGES


@<TRIPOS>ATOM
   1 N1             0.0744     1.2366    -0.4703 N.pl3   
   2 N2             0.2127    -0.0376    -0.5552 N.2     
   3 C3             1.3011    -0.4263     0.0820 C.2     
   4 C4             1.9079     0.7287     0.6230 C.2     
   5 C5             1.1031     1.7700     0.2540 C.2     
   6 C6             1.7933    -1.8119     0.2063 C.2     
   7 O7             2.8147    -2.0407     0.8232 O.2     
   8 O8             1.1101    -2.8233    -0.3644 O.3     
   9 C9             1.3068     3.1997     0.5762 C.ar    
  10 C10            2.5820     3.6730     0.8860 C.ar    
  11 C11            2.7655     5.0074     1.1852 C.ar    
  12 C12            1.6882     5.8753     1.1788 C.ar    
  13 C13            0.4210     5.4119     0.8728 C.ar    
  14 C14            0.2254     4.0810     0.5659 C.ar    
  15 C15           -0.9726     1.9712    -1.0407 C.ar    
  16 C16           -2.2912     1.6664    -0.7232 C.ar    
  17 C17           -3.3216     2.3940    -1.2878 C.ar    
  18 C18           -3.0416     3.4238    -2.1673 C.ar    
  19 C19           -1.7309     3.7289    -2.4848 C.ar    
  20 C20           -0.6958     3.0092    -1.9201 C.ar    
  21 Cl21          -2.6430     0.3734     0.3804 Cl      
  22 C22            1.6529    -4.1601    -0.2014 C.3     
  23 H23            2.8159     0.7786     1.2056 H       
  24 H24            3.4238     2.9964     0.8920 H       
  25 H25            3.7522     5.3751     1.4252 H       
  26 H26            1.8369     6.9188     1.4140 H       
  27 H27           -0.4162     6.0942     0.8702 H       
  28 H28           -0.7635     3.7214     0.3228 H       
  29 H29           -4.3465     2.1579    -1.0422 H       
  30 H30           -3.8486     3.9907    -2.6076 H       
  31 H31           -1.5160     4.5338    -3.1721 H       
  32 H32            0.3277     3.2514    -2.1653 H       
  33 H33            2.6526    -4.2015    -0.6336 H       
  34 H34            1.7053    -4.4041     0.8597 H       
  35 H35            1.0081    -4.8783    -0.7079 H       
@<TRIPOS>BOND
   1    1    2 1
   2    1    5 1
   3    1   15 1
   4    2    3 2
   5    3    4 1
   6    3    6 1
   7    4    5 2
   8    4   23 1
   9    5    9 1
  10    6    7 2
  11    6    8 1
  12    8   22 1
  13    9   10 ar
  14    9   14 ar
  15   10   11 ar
  16   10   24 1
  17   11   12 ar
  18   11   25 1
  19   12   13 ar
  20   12   26 1
  21   13   14 ar
  22   13   27 1
  23   14   28 1
  24   15   16 ar
  25   15   20 ar
  26   16   17 ar
  27   16   21 1
  28   17   18 ar
  29   17   29 1
  30   18   19 ar
  31   18   30 1
  32   19   20 ar
  33   19   31 1
  34   20   32 1
  35   22   33 1
  36   22   34 1
  37   22   35 1

#	End of record

