#	Name: ASD08170252
#	Creating user name:	WinNT
#	Creation time:	15. 06. 2019 21:17

#	Modifying user name:	WinNT
#	Modification time:	15. 06. 2019 21:17

#	Program:	/corina/corina34_cracker 3.40 0067  02.08.2006

@<TRIPOS>MOLECULE
ASD08170252
  62   63    0    0    0
SMALL
NO_CHARGES


@<TRIPOS>ATOM
   1 N1            -0.0150     1.2583     0.0090 N.2     
   2 N2             0.0021    -0.0041     0.0020 N.2     
   3 C3             1.1271     1.8769     0.0014 C.2     
   4 S4             2.3826     0.7116    -0.0169 S.3     
   5 C5             1.1681    -0.5677    -0.0121 C.2     
   6 C6             1.4387    -2.0502    -0.0227 C.3     
   7 C7             1.5165    -2.5442    -1.4687 C.3     
   8 C8             1.8690    -4.5432    -2.9254 C.3     
   9 C9             2.1395    -6.0257    -2.9359 C.2     
  10 N10            1.2478    -6.9651    -2.9329 N.2     
  11 S11            3.7275    -6.7933    -2.9623 S.3     
  12 C12            2.9647    -8.3272    -2.9581 C.2     
  13 N13            1.6777    -8.1521    -2.9433 N.2     
  14 N14            3.6154    -9.5562    -2.9730 N.am    
  15 C15            2.8993   -10.6980    -2.9678 C.2     
  16 O16            1.6874   -10.6536    -2.9501 O.2     
  17 C17            3.6044   -12.0297    -2.9839 C.3     
  18 N18            1.3017     3.2566     0.0067 N.am    
  19 C19            0.2284     4.0717     0.0214 C.2     
  20 C20            0.4176     5.5667     0.0272 C.3     
  21 O21           -0.8897     3.6019     0.0299 O.2     
  22 C22            1.7912    -4.0493    -1.4794 C.3     
  23 O23            2.6212   -13.0981    -2.9745 O.3     
  24 O24           -0.8797     6.2187     0.0432 O.3     
  25 C25            1.2094     5.9758     1.2708 C.3     
  26 C26            1.1849     5.9885    -1.2275 C.3     
  27 C27           -0.8871     7.5610     0.0501 C.2     
  28 C28           -2.1962     8.3072     0.0668 C.3     
  29 O29            0.1559     8.1709     0.0430 O.2     
  30 C30            4.4624   -12.1373    -4.2461 C.3     
  31 C31            4.4984   -12.1485    -1.7479 C.3     
  32 C32            3.0884   -14.3564    -2.9868 C.2     
  33 C33            2.1274   -15.5172    -2.9781 C.3     
  34 O34            4.2796   -14.5584    -3.0049 O.2     
  35 H35            2.3843    -2.2506     0.4811 H       
  36 H36            0.6334    -2.5702     0.4961 H       
  37 H37            0.5709    -2.3438    -1.9724 H       
  38 H38            2.3218    -2.0242    -1.9874 H       
  39 H39            2.6743    -4.0232    -3.4441 H       
  40 H40            0.9234    -4.3429    -3.4291 H       
  41 H41            4.5846    -9.5917    -2.9871 H       
  42 H42            2.1959     3.6323    -0.0001 H       
  43 H43            2.7368    -4.2496    -0.9756 H       
  44 H44            0.9858    -4.5693    -0.9606 H       
  45 H45            2.1833     5.4864     1.2588 H       
  46 H46            1.3463     7.0572     1.2750 H       
  47 H47            0.6628     5.6753     2.1647 H       
  48 H48            0.6208     5.6971    -2.1135 H       
  49 H49            1.3218     7.0699    -1.2234 H       
  50 H50            2.1588     5.4991    -1.2396 H       
  51 H51           -2.5018     8.4819     1.0984 H       
  52 H52           -2.0762     9.2630    -0.4434 H       
  53 H53           -2.9576     7.7166    -0.4427 H       
  54 H54            5.2005   -11.3353    -4.2532 H       
  55 H55            4.9724   -13.1006    -4.2578 H       
  56 H56            3.8255   -12.0527    -5.1266 H       
  57 H57            3.8872   -12.0718    -0.8487 H       
  58 H58            5.0084   -13.1117    -1.7596 H       
  59 H59            5.2365   -11.3464    -1.7550 H       
  60 H60            1.4871   -15.4654    -3.8588 H       
  61 H61            2.6871   -16.4524    -2.9904 H       
  62 H62            1.5128   -15.4733    -2.0790 H       
@<TRIPOS>BOND
   1    1    2 1
   2    1    3 2
   3    2    5 2
   4    3    4 1
   5    3   18 1
   6    4    5 1
   7    5    6 1
   8    6    7 1
   9    6   35 1
  10    6   36 1
  11    7   22 1
  12    7   37 1
  13    7   38 1
  14    8    9 1
  15    8   22 1
  16    8   39 1
  17    8   40 1
  18    9   10 2
  19    9   11 1
  20   10   13 1
  21   11   12 1
  22   12   13 2
  23   12   14 1
  24   14   15 am
  25   14   41 1
  26   15   16 2
  27   15   17 1
  28   17   23 1
  29   17   30 1
  30   17   31 1
  31   18   19 am
  32   18   42 1
  33   19   20 1
  34   19   21 2
  35   20   24 1
  36   20   25 1
  37   20   26 1
  38   22   43 1
  39   22   44 1
  40   23   32 1
  41   24   27 1
  42   25   45 1
  43   25   46 1
  44   25   47 1
  45   26   48 1
  46   26   49 1
  47   26   50 1
  48   27   28 1
  49   27   29 2
  50   28   51 1
  51   28   52 1
  52   28   53 1
  53   30   54 1
  54   30   55 1
  55   30   56 1
  56   31   57 1
  57   31   58 1
  58   31   59 1
  59   32   33 1
  60   32   34 2
  61   33   60 1
  62   33   61 1
  63   33   62 1

#	End of record

