#	Name: ASD01001048
#	Creating user name:	WinNT
#	Creation time:	15. 06. 2019 18:55

#	Modifying user name:	WinNT
#	Modification time:	15. 06. 2019 18:55

#	Program:	/corina/corina34_cracker 3.40 0067  02.08.2006

@<TRIPOS>MOLECULE
ASD01001048
  52   54    0    0    0
SMALL
NO_CHARGES


@<TRIPOS>ATOM
   1 C1             0.1437     0.8542    -0.2635 C.ar    
   2 C2             0.3379    -0.3794    -0.8486 C.ar    
   3 C3             1.2267     1.6668     0.0220 C.ar    
   4 C4             1.6335    -0.8083    -1.1534 C.ar    
   5 C5             2.5123     1.2494    -0.2767 C.ar    
   6 C6             2.7230     0.0189    -0.8618 C.ar    
   7 C7             3.6847     2.1423     0.0384 C.3     
   8 C8             3.2522     3.5840    -0.0355 C.ar    
   9 C9             4.1881     1.8394     1.4261 C.ar    
  10 S10            5.0105     1.8464    -1.1638 S.3     
  11 C11            3.4486     4.4209     1.0471 C.ar    
  12 C12            2.6642     4.0711    -1.1879 C.ar    
  13 C13            3.3449     1.9777     2.5128 C.ar    
  14 C14            5.4914     1.4177     1.6119 C.ar    
  15 C15            6.2347     3.1169    -0.7422 C.3     
  16 C16            3.0571     5.7448     0.9773 C.ar    
  17 C17            2.2674     5.3935    -1.2556 C.ar    
  18 C18            3.8051     1.6944     3.7851 C.ar    
  19 C19            5.9532     1.1399     2.8848 C.ar    
  20 C20            7.4106     3.0357    -1.7177 C.3     
  21 C21            2.4695     6.2319    -0.1753 C.ar    
  22 C22            5.1082     1.2723     3.9708 C.ar    
  23 N23            8.0318     1.7077    -1.6264 N.3     
  24 C24            1.8496    -2.1235    -1.7775 C.2     
  25 O25            2.9743    -2.4923    -2.0405 O.2     
  26 C26            0.6730    -3.0119    -2.0896 C.3     
  27 C27            8.4276     4.0912    -1.3675 C.2     
  28 O28            9.4147     3.7935    -0.7374 O.2     
  29 O29            8.2369     5.3619    -1.7554 O.3     
  30 H30           -0.8567     1.1887    -0.0315 H       
  31 H31           -0.5083    -1.0127    -1.0705 H       
  32 H32            1.0681     2.6320     0.4799 H       
  33 H33            3.7266    -0.3055    -1.0939 H       
  34 H34            3.9077     4.0403     1.9475 H       
  35 H35            2.5151     3.4185    -2.0354 H       
  36 H36            2.3268     2.3075     2.3677 H       
  37 H37            6.1488     1.3051     0.7624 H       
  38 H38            5.7738     4.1023    -0.8099 H       
  39 H39            6.5936     2.9527     0.2739 H       
  40 H40            3.2099     6.3985     1.8233 H       
  41 H41            1.8083     5.7741    -2.1560 H       
  42 H42            3.1465     1.8032     4.6342 H       
  43 H43            6.9714     0.8102     3.0299 H       
  44 H44            7.0517     3.1999    -2.7338 H       
  45 H45            2.1632     7.2662    -0.2297 H       
  46 H46            5.4690     1.0553     4.9654 H       
  47 H47            8.7703     1.6064    -2.3065 H       
  48 H48            8.3728     1.5313    -0.6933 H       
  49 H49           -0.2482    -2.5154    -1.7846 H       
  50 H50            0.6414    -3.2099    -3.1610 H       
  51 H51            0.7747    -3.9529    -1.5491 H       
  52 H52            8.9166     6.0034    -1.5073 H       
@<TRIPOS>BOND
   1    1    2 ar
   2    1    3 ar
   3    1   30 1
   4    2    4 ar
   5    2   31 1
   6    3    5 ar
   7    3   32 1
   8    4    6 ar
   9    4   24 1
  10    5    6 ar
  11    5    7 1
  12    6   33 1
  13    7   10 1
  14    7    8 1
  15    7    9 1
  16    8   12 ar
  17    8   11 ar
  18    9   14 ar
  19    9   13 ar
  20   10   15 1
  21   11   16 ar
  22   11   34 1
  23   12   17 ar
  24   12   35 1
  25   13   18 ar
  26   13   36 1
  27   14   19 ar
  28   14   37 1
  29   15   20 1
  30   15   38 1
  31   15   39 1
  32   16   21 ar
  33   16   40 1
  34   17   21 ar
  35   17   41 1
  36   18   22 ar
  37   18   42 1
  38   19   22 ar
  39   19   43 1
  40   20   23 1
  41   20   27 1
  42   20   44 1
  43   21   45 1
  44   22   46 1
  45   23   47 1
  46   23   48 1
  47   24   25 2
  48   24   26 1
  49   26   49 1
  50   26   50 1
  51   26   51 1
  52   27   28 2
  53   27   29 1
  54   29   52 1

#	End of record

