#	Name: ASD01150220
#	Creating user name:	WinNT
#	Creation time:	15. 06. 2019 19:03

#	Modifying user name:	WinNT
#	Modification time:	15. 06. 2019 19:03

#	Program:	/corina/corina34_cracker 3.40 0067  02.08.2006

@<TRIPOS>MOLECULE
ASD01150220
  50   52    0    0    0
SMALL
NO_CHARGES


@<TRIPOS>ATOM
   1 C1            -0.1393     0.9989     0.1544 C.ar    
   2 N2             0.1087    -0.3023     0.1863 N.ar    
   3 C3             1.3511    -0.7347     0.0646 C.ar    
   4 C4             2.3986     0.1634    -0.0958 C.ar    
   5 N5             2.1656     1.4612    -0.1292 N.ar    
   6 C6             0.9226     1.9060    -0.0085 C.ar    
   7 C7             0.6080     3.3491    -0.0399 C.2     
   8 N8            -0.6831     3.7246     0.0891 N.am    
   9 C9            -1.6591     2.8160     0.2423 C.2     
  10 N10           -1.4239     1.4937     0.2838 N.am    
  11 C11           -1.0242     5.1491     0.0616 C.3     
  12 O12            1.4877     4.1767    -0.1776 O.2     
  13 C13           -1.3011     5.5720    -1.3581 C.ar    
  14 C14           -2.5846     5.4917    -1.8652 C.ar    
  15 C15           -2.8392     5.8795    -3.1671 C.ar    
  16 C16           -1.8090     6.3481    -3.9630 C.ar    
  17 C17           -0.5247     6.4282    -3.4550 C.ar    
  18 C18           -0.2724     6.0454    -2.1511 C.ar    
  19 Cl19          -2.1278     6.8347    -5.5986 Cl      
  20 O20           -2.8048     3.2066     0.3549 O.2     
  21 C21           -2.5436     0.5644     0.4539 C.3     
  22 C22           -3.0904     0.1681    -0.9189 C.3     
  23 C23           -4.2598    -0.8024    -0.7412 C.3     
  24 C24            1.6344    -2.2144     0.1007 C.3     
  25 C25            3.8096    -0.3480    -0.2320 C.3     
  26 C26            4.4638    -0.4138     1.1495 C.3     
  27 C27            1.5652    -2.7816    -1.3186 C.3     
  28 H28           -1.9107     5.3222     0.6717 H       
  29 H29           -0.1913     5.7298     0.4579 H       
  30 H30           -3.3886     5.1256    -1.2439 H       
  31 H31           -3.8419     5.8164    -3.5633 H       
  32 H32            0.2799     6.7939    -4.0758 H       
  33 H33            0.7301     6.1079    -1.7544 H       
  34 H34           -2.1996    -0.3266     0.9791 H       
  35 H35           -3.3310     1.0465     1.0334 H       
  36 H36           -3.4344     1.0591    -1.4441 H       
  37 H37           -2.3030    -0.3140    -1.4983 H       
  38 H38           -5.0472    -0.3204    -0.1618 H       
  39 H39           -4.6494    -1.0848    -1.7193 H       
  40 H40           -3.9159    -1.6935    -0.2160 H       
  41 H41            2.6296    -2.3839     0.5116 H       
  42 H42            0.8933    -2.7110     0.7269 H       
  43 H43            3.7939    -1.3441    -0.6744 H       
  44 H44            4.3798     0.3250    -0.8723 H       
  45 H45            4.4417     0.5741     1.6094 H       
  46 H46            3.9181    -1.1188     1.7767 H       
  47 H47            5.4975    -0.7438     1.0467 H       
  48 H48            0.5475    -2.6889    -1.6978 H       
  49 H49            2.2457    -2.2273    -1.9650 H       
  50 H50            1.8532    -3.8328    -1.3042 H       
@<TRIPOS>BOND
   1    1    2 ar
   2    1    6 ar
   3    1   10 1
   4    2    3 ar
   5    3    4 ar
   6    3   24 1
   7    4    5 ar
   8    4   25 1
   9    5    6 ar
  10    6    7 1
  11    7    8 am
  12    7   12 2
  13    8    9 am
  14    8   11 1
  15    9   10 am
  16    9   20 2
  17   10   21 1
  18   11   13 1
  19   11   28 1
  20   11   29 1
  21   13   14 ar
  22   13   18 ar
  23   14   15 ar
  24   14   30 1
  25   15   16 ar
  26   15   31 1
  27   16   17 ar
  28   16   19 1
  29   17   18 ar
  30   17   32 1
  31   18   33 1
  32   21   22 1
  33   21   34 1
  34   21   35 1
  35   22   23 1
  36   22   36 1
  37   22   37 1
  38   23   38 1
  39   23   39 1
  40   23   40 1
  41   24   27 1
  42   24   41 1
  43   24   42 1
  44   25   26 1
  45   25   43 1
  46   25   44 1
  47   26   45 1
  48   26   46 1
  49   26   47 1
  50   27   48 1
  51   27   49 1
  52   27   50 1

#	End of record

