#	Name: ASD09610085
#	Creating user name:	WinNT
#	Creation time:	15. 06. 2019 21:22

#	Modifying user name:	WinNT
#	Modification time:	15. 06. 2019 21:22

#	Program:	/corina/corina34_cracker 3.40 0067  02.08.2006

@<TRIPOS>MOLECULE
ASD09610085
  41   43    0    0    0
SMALL
NO_CHARGES


@<TRIPOS>ATOM
   1 S1             0.2005     1.9201     0.2501 S.3     
   2 C2            -0.2199     0.3978    -0.4046 C.2     
   3 N3             0.7952    -0.1282    -1.0111 N.2     
   4 C4             1.9115     0.5561    -1.0208 C.2     
   5 C5             1.8385     1.7479    -0.3764 C.2     
   6 C6             2.9273     2.7191    -0.2286 C.2     
   7 O7             4.0400     2.4536    -0.6438 O.2     
   8 N8             2.6957     3.9057     0.3672 N.am    
   9 C9             3.5018     6.1483     0.8072 C.ar    
  10 C10            3.7533     4.7862     0.6043 C.ar    
  11 C11            5.0574     4.3146     0.6400 C.ar    
  12 C12            6.1024     5.1874     0.8757 C.ar    
  13 C13            5.8561     6.5340     1.0770 C.ar    
  14 C14            4.5634     7.0177     1.0438 C.ar    
  15 C15            2.1119     6.6637     0.7649 C.ar    
  16 C16            1.6338     7.4717     1.7951 C.ar    
  17 C17            0.3395     7.9485     1.7504 C.ar    
  18 C18           -0.4831     7.6255     0.6862 C.ar    
  19 C19           -0.0140     6.8240    -0.3389 C.ar    
  20 C20            1.2806     6.3466    -0.3079 C.ar    
  21 C21           -1.8958     8.1484     0.6437 C.3     
  22 F22           -1.9169     9.3818    -0.0162 F       
  23 F23           -2.7092     7.2392    -0.0410 F       
  24 F24           -2.3728     8.3097     1.9490 F       
  25 C25           -1.5801    -0.2411    -0.2914 C.3     
  26 C26            3.1688     0.0623    -1.6890 C.3     
  27 F27            2.8600    -1.0166    -2.5243 F       
  28 F28            3.7295     1.0947    -2.4486 F       
  29 H29            1.7943     4.1480     0.6313 H       
  30 H30            5.2560     3.2646     0.4840 H       
  31 H31            7.1164     4.8166     0.9032 H       
  32 H32            6.6784     7.2095     1.2613 H       
  33 H33            4.3758     8.0696     1.2007 H       
  34 H34            2.2749     7.7240     2.6268 H       
  35 H35           -0.0320     8.5747     2.5481 H       
  36 H36           -0.6605     6.5750    -1.1674 H       
  37 H37            1.6473     5.7246    -1.1111 H       
  38 H38           -2.2450     0.4166     0.2684 H       
  39 H39           -1.9878    -0.4067    -1.2886 H       
  40 H40           -1.4912    -1.1953     0.2279 H       
  41 H41            3.8818    -0.2586    -0.9296 H       
@<TRIPOS>BOND
   1    1    2 1
   2    1    5 1
   3    2    3 2
   4    2   25 1
   5    3    4 1
   6    4    5 2
   7    4   26 1
   8    5    6 1
   9    6    7 2
  10    6    8 am
  11    8   10 1
  12    8   29 1
  13    9   10 ar
  14    9   14 ar
  15    9   15 1
  16   10   11 ar
  17   11   12 ar
  18   11   30 1
  19   12   13 ar
  20   12   31 1
  21   13   14 ar
  22   13   32 1
  23   14   33 1
  24   15   16 ar
  25   15   20 ar
  26   16   17 ar
  27   16   34 1
  28   17   18 ar
  29   17   35 1
  30   18   19 ar
  31   18   21 1
  32   19   20 ar
  33   19   36 1
  34   20   37 1
  35   21   22 1
  36   21   23 1
  37   21   24 1
  38   25   38 1
  39   25   39 1
  40   25   40 1
  41   26   27 1
  42   26   28 1
  43   26   41 1

#	End of record

