#	Name: ASD01900822
#	Creating user name:	WinNT
#	Creation time:	15. 06. 2019 19:52

#	Modifying user name:	WinNT
#	Modification time:	15. 06. 2019 19:52

#	Program:	/corina/corina34_cracker 3.40 0067  02.08.2006

@<TRIPOS>MOLECULE
ASD01900822
  39   41    0    0    0
SMALL
NO_CHARGES


@<TRIPOS>ATOM
   1 N1             0.3638     0.6381    -0.6934 N.am    
   2 C2             0.6320    -0.7350    -0.6405 C.ar    
   3 C3             2.1737    -2.5589    -0.8642 C.ar    
   4 C4             1.9093    -1.2043    -0.9165 C.ar    
   5 C5            -0.3782    -1.6277    -0.3062 C.ar    
   6 C6            -0.1127    -2.9823    -0.2537 C.ar    
   7 C7             1.1640    -3.4510    -0.5351 C.ar    
   8 Cl8           -1.3746    -4.0987     0.1646 Cl      
   9 C9             0.9427     1.4017    -1.6412 C.2     
  10 C10            0.5711     2.8251    -1.7715 C.ar    
  11 O11            1.7708     0.9187    -2.3891 O.2     
  12 C12            1.0844     3.5850    -2.8314 C.ar    
  13 C13            0.7205     4.9279    -2.9357 C.ar    
  14 C14           -0.1344     5.4539    -1.9849 C.ar    
  15 C15           -0.6028     4.6402    -0.9629 C.ar    
  16 N16           -0.2520     3.3765    -0.8861 N.ar    
  17 N17            1.9408     3.0111    -3.7618 N.pl3   
  18 O18            1.4251    -4.7844    -0.4843 O.3     
  19 C19            2.6805    -5.2010    -0.7958 C.ar    
  20 C20            3.7381    -5.0009     0.0856 C.ar    
  21 C21            2.9403    -5.8439    -2.0020 C.ar    
  22 N22            4.1759    -6.2343    -2.2682 N.ar    
  23 C23            5.1524    -6.0213    -1.4092 C.ar    
  24 N24            4.9455    -5.4210    -0.2544 N.ar    
  25 C25            6.5446    -6.4833    -1.7547 C.3     
  26 H26           -0.2416     1.0392    -0.0504 H       
  27 H27            3.1672    -2.9237    -1.0797 H       
  28 H28            2.6960    -0.5101    -1.1725 H       
  29 H29           -1.3709    -1.2629    -0.0870 H       
  30 H30            1.0979     5.5421    -3.7399 H       
  31 H31           -0.4351     6.4899    -2.0370 H       
  32 H32           -1.2706     5.0518    -0.2206 H       
  33 H33            2.0836     2.0517    -3.7626 H       
  34 H34            2.3964     3.5697    -4.4109 H       
  35 H35            3.5758    -4.5093     1.0335 H       
  36 H36            2.1448    -6.0220    -2.7104 H       
  37 H37            7.0717    -5.6871    -2.2805 H       
  38 H38            7.0823    -6.7324    -0.8398 H       
  39 H39            6.4870    -7.3645    -2.3936 H       
@<TRIPOS>BOND
   1    1    2 1
   2    1    9 am
   3    1   26 1
   4    2    5 ar
   5    2    4 ar
   6    3    4 ar
   7    3    7 ar
   8    3   27 1
   9    4   28 1
  10    5    6 ar
  11    5   29 1
  12    6    7 ar
  13    6    8 1
  14    7   18 1
  15    9   10 1
  16    9   11 2
  17   10   12 ar
  18   10   16 ar
  19   12   13 ar
  20   12   17 1
  21   13   14 ar
  22   13   30 1
  23   14   15 ar
  24   14   31 1
  25   15   16 ar
  26   15   32 1
  27   17   33 1
  28   17   34 1
  29   18   19 1
  30   19   21 ar
  31   19   20 ar
  32   20   24 ar
  33   20   35 1
  34   21   22 ar
  35   21   36 1
  36   22   23 ar
  37   23   24 ar
  38   23   25 1
  39   25   37 1
  40   25   38 1
  41   25   39 1

#	End of record

