#	Name: ASD01150706
#	Creating user name:	WinNT
#	Creation time:	15. 06. 2019 19:04

#	Modifying user name:	WinNT
#	Modification time:	15. 06. 2019 19:04

#	Program:	/corina/corina34_cracker 3.40 0067  02.08.2006

@<TRIPOS>MOLECULE
ASD01150706
  47   50    0    0    0
SMALL
NO_CHARGES


@<TRIPOS>ATOM
   1 S1             0.0382     1.7273     0.4411 S.3     
   2 C2             0.0290    -0.0133     0.1895 C.ar    
   3 N3            -0.9958    -0.8744     0.1720 N.ar    
   4 C4            -0.8373    -2.1575    -0.0319 C.ar    
   5 C5             0.4367    -2.7022    -0.2454 C.ar    
   6 C6             1.5533    -1.8446    -0.2376 C.ar    
   7 C7             1.3354    -0.4596    -0.0123 C.ar    
   8 C8             2.3163     0.6195     0.0436 C.2     
   9 C9             3.8093     0.3787    -0.1367 C.3     
  10 C10            4.4931     1.7010    -0.4899 C.3     
  11 N11            4.0095     2.7427     0.4291 N.am    
  12 C12            2.5863     3.1074     0.3658 C.3     
  13 C13            1.7819     1.8202     0.2713 C.2     
  14 C14            4.8435     3.3431     1.3011 C.2     
  15 O15            6.0160     3.0262     1.3369 O.2     
  16 O16            4.3775     4.2941     2.1325 O.3     
  17 C17            2.9171    -2.3722    -0.4583 C.ar    
  18 C18            3.2601    -2.9358    -1.6884 C.ar    
  19 C19            4.5341    -3.4262    -1.8876 C.ar    
  20 C20            5.4709    -3.3603    -0.8715 C.ar    
  21 C21            5.1372    -2.8032     0.3504 C.ar    
  22 C22            3.8687    -2.3035     0.5607 C.ar    
  23 C23           -2.0420    -3.0628    -0.0369 C.3     
  24 C24            0.6036    -4.1410    -0.4725 C.2     
  25 O25            0.4483    -4.6017    -1.5840 O.2     
  26 C26            0.9681    -5.0476     0.6748 C.3     
  27 C27            5.3323     4.8976     3.0449 C.3     
  28 H28            4.2296    -0.0125     0.7898 H       
  29 H29            3.9678    -0.3395    -0.9412 H       
  30 H30            5.5727     1.5937    -0.3852 H       
  31 H31            4.2486     1.9764    -1.5158 H       
  32 H32            2.3046     3.6537     1.2659 H       
  33 H33            2.4017     3.7236    -0.5141 H       
  34 H34            2.5297    -2.9882    -2.4822 H       
  35 H35            4.8007    -3.8629    -2.8388 H       
  36 H36            6.4668    -3.7456    -1.0326 H       
  37 H37            5.8730    -2.7551     1.1395 H       
  38 H38            3.6110    -1.8643     1.5131 H       
  39 H39           -2.3829    -3.2085    -1.0619 H       
  40 H40           -1.7744    -4.0261     0.3974 H       
  41 H41           -2.8402    -2.6087     0.5504 H       
  42 H42            0.2433    -4.9245     1.4796 H       
  43 H43            0.9619    -6.0834     0.3355 H       
  44 H44            1.9627    -4.7905     1.0392 H       
  45 H45            6.1299     5.3729     2.4739 H       
  46 H46            4.8277     5.6456     3.6564 H       
  47 H47            5.7561     4.1273     3.6892 H       
@<TRIPOS>BOND
   1    1    2 1
   2    1   13 1
   3    2    3 ar
   4    2    7 ar
   5    3    4 ar
   6    4    5 ar
   7    4   23 1
   8    5    6 ar
   9    5   24 1
  10    6    7 ar
  11    6   17 1
  12    7    8 1
  13    8    9 1
  14    8   13 2
  15    9   10 1
  16    9   28 1
  17    9   29 1
  18   10   11 1
  19   10   30 1
  20   10   31 1
  21   11   12 1
  22   11   14 am
  23   12   13 1
  24   12   32 1
  25   12   33 1
  26   14   15 2
  27   14   16 1
  28   16   27 1
  29   17   18 ar
  30   17   22 ar
  31   18   19 ar
  32   18   34 1
  33   19   20 ar
  34   19   35 1
  35   20   21 ar
  36   20   36 1
  37   21   22 ar
  38   21   37 1
  39   22   38 1
  40   23   39 1
  41   23   40 1
  42   23   41 1
  43   24   25 2
  44   24   26 1
  45   26   42 1
  46   26   43 1
  47   26   44 1
  48   27   45 1
  49   27   46 1
  50   27   47 1

#	End of record

