#	Name: ASD01152559
#	Creating user name:	WinNT
#	Creation time:	15. 06. 2019 19:06

#	Modifying user name:	WinNT
#	Modification time:	15. 06. 2019 19:06

#	Program:	/corina/corina34_cracker 3.40 0067  02.08.2006

@<TRIPOS>MOLECULE
ASD01152559
  51   53    0    0    0
SMALL
NO_CHARGES


@<TRIPOS>ATOM
   1 C1             0.1114     1.1570    -0.6960 C.2     
   2 N2             0.0190    -0.1437    -0.6175 N.2     
   3 N3            -1.1204    -0.7661    -0.1080 N.am    
   4 C4            -2.2614    -0.0993     0.1329 C.2     
   5 C5            -2.3923     1.3536    -0.2592 C.3     
   6 C6            -1.0083     1.9736    -0.2035 C.2     
   7 C7            -2.9556     1.4586    -1.6779 C.3     
   8 O8            -0.8357     3.0970     0.2223 O.2     
   9 C9            -1.0734    -2.1389     0.1623 C.ar    
  10 O10           -3.1906    -0.6663     0.6673 O.2     
  11 C11           -3.1984     2.9070    -2.0160 C.ar    
  12 C12           -0.0101    -2.6693     0.8797 C.ar    
  13 C13           -2.0938    -2.9703    -0.2824 C.ar    
  14 C14           -2.0490    -4.3251    -0.0160 C.ar    
  15 C15           -0.9884    -4.8582     0.6946 C.ar    
  16 C16            0.0334    -4.0297     1.1463 C.ar    
  17 C17           -2.1643     3.6802    -2.5102 C.ar    
  18 C18           -4.4579     3.4548    -1.8353 C.ar    
  19 C19           -4.6914     4.7778    -2.1415 C.ar    
  20 C20           -2.3824     5.0154    -2.8230 C.ar    
  21 C21           -3.6540     5.5729    -2.6366 C.ar    
  22 F22           -0.9478    -6.1833     0.9543 F       
  23 F23           -0.9405     3.1365    -2.6886 F       
  24 C24           -3.8911     6.9483    -2.9570 C.1     
  25 N25           -4.0792     8.0394    -3.2111 N.1     
  26 O26            1.2213     1.7434    -1.2164 O.3     
  27 C27            2.2637     0.8752    -1.6655 C.3     
  28 N28            1.1045    -4.5683     1.8702 N.am    
  29 C29            1.7680    -3.8044     2.7605 C.2     
  30 O30            1.4983    -2.6269     2.8693 O.2     
  31 C31            2.8451    -4.4133     3.6209 C.3     
  32 O32           -1.3685     5.7767    -3.3084 O.3     
  33 C33           -1.2043     5.8100    -4.7275 C.3     
  34 H34           -3.0528     1.8666     0.4399 H       
  35 H35           -2.2418     1.0353    -2.3845 H       
  36 H36           -3.8952     0.9092    -1.7373 H       
  37 H37            0.7821    -2.0238     1.2293 H       
  38 H38           -2.9234    -2.5568    -0.8368 H       
  39 H39           -2.8435    -4.9693    -0.3628 H       
  40 H40           -5.2607     2.8419    -1.4528 H       
  41 H41           -5.6753     5.1999    -1.9995 H       
  42 H42            3.0888     1.4703    -2.0569 H       
  43 H43            2.6166     0.2693    -0.8310 H       
  44 H44            1.8808     0.2239    -2.4512 H       
  45 H45            1.3688    -5.4911     1.7308 H       
  46 H46            3.8054    -4.3334     3.1115 H       
  47 H47            2.8931    -3.8834     4.5722 H       
  48 H48            2.6157    -5.4635     3.8011 H       
  49 H49           -0.3613     6.4530    -4.9807 H       
  50 H50           -1.0152     4.8015    -5.0952 H       
  51 H51           -2.1110     6.2010    -5.1891 H       
@<TRIPOS>BOND
   1    1    2 2
   2    1   26 1
   3    1    6 1
   4    2    3 1
   5    3    4 am
   6    3    9 1
   7    4    5 1
   8    4   10 2
   9    5    6 1
  10    5    7 1
  11    5   34 1
  12    6    8 2
  13    7   11 1
  14    7   35 1
  15    7   36 1
  16    9   12 ar
  17    9   13 ar
  18   11   17 ar
  19   11   18 ar
  20   12   16 ar
  21   12   37 1
  22   13   14 ar
  23   13   38 1
  24   14   15 ar
  25   14   39 1
  26   15   16 ar
  27   15   22 1
  28   16   28 1
  29   17   23 1
  30   17   20 ar
  31   18   19 ar
  32   18   40 1
  33   19   21 ar
  34   19   41 1
  35   20   32 1
  36   20   21 ar
  37   21   24 1
  38   24   25 3
  39   26   27 1
  40   27   42 1
  41   27   43 1
  42   27   44 1
  43   28   29 am
  44   28   45 1
  45   29   30 2
  46   29   31 1
  47   31   46 1
  48   31   47 1
  49   31   48 1
  50   32   33 1
  51   33   49 1
  52   33   50 1
  53   33   51 1

#	End of record

