#	Name: ASD06610078
#	Creating user name:	WinNT
#	Creation time:	15. 06. 2019 21:07

#	Modifying user name:	WinNT
#	Modification time:	15. 06. 2019 21:07

#	Program:	/corina/corina34_cracker 3.40 0067  02.08.2006

@<TRIPOS>MOLECULE
ASD06610078
 473  476    0    0    0
SMALL
NO_CHARGES


@<TRIPOS>ATOM
   1 C1           -20.0854     1.4566    15.7402 C.2     
   2 O2           -19.8727     0.2639    15.6842 O.2     
   3 N3           -18.1849     1.5936    17.2483 N.3     
   4 C4           -19.0718     2.3737    16.3749 C.3     
   5 C5           -18.2435     3.0525    15.2822 C.3     
   6 C6           -17.3002     4.0753    15.9186 C.3     
   7 C7           -16.4844     4.7439    14.8423 C.2     
   8 O8           -16.6418     4.4331    13.6812 O.2     
   9 N9           -15.5797     5.6875    15.1706 N.am    
  10 C10          -23.0340     1.8496    13.6156 C.2     
  11 O11          -22.8228     3.0317    13.4454 O.2     
  12 N12          -21.2255     1.9625    15.2299 N.am    
  13 C13          -22.2081     1.0717    14.6075 C.3     
  14 C14          -23.1227     0.4881    15.6863 C.3     
  15 C15          -22.2734    -0.1954    16.7598 C.3     
  16 O16          -23.8878     1.5381    16.2812 O.3     
  17 C17          -26.2695     1.4217    12.0597 C.2     
  18 O18          -26.4929     0.4194    12.7050 O.2     
  19 N19          -24.0075     1.2317    12.9178 N.am    
  20 C20          -24.8815     2.0081    12.0348 C.3     
  21 C21          -24.3341     1.9625    10.6068 C.3     
  22 C22          -24.1211     0.5063    10.1885 C.3     
  23 C23          -25.4749    -0.2004    10.0940 C.3     
  24 C24          -23.0007     2.7104    10.5476 C.3     
  25 C25          -29.2955     1.8366    10.0512 C.2     
  26 O26          -28.7520     2.6092     9.2906 O.2     
  27 N27          -27.2626     2.0112    11.3649 N.am    
  28 C28          -28.5843     1.3826    11.2998 C.3     
  29 C29          -29.4022     1.7864    12.5281 C.3     
  30 C30          -32.5867     1.1788     8.4989 C.2     
  31 O31          -32.9430     0.4236     9.3785 O.2     
  32 N32          -30.5357     1.3841     9.7797 N.am    
  33 C33          -31.2271     1.8255     8.5659 C.3     
  34 C34          -35.1804     0.7397     5.9607 C.2     
  35 O35          -34.4687     1.1714     5.0786 O.2     
  36 N36          -33.4066     1.4397     7.4616 N.am    
  37 C37          -34.7283     0.8111     7.3965 C.3     
  38 C38          -35.7279     1.6403     8.2053 C.3     
  39 C39          -35.3433     1.6099     9.6621 C.2     
  40 C40          -35.1247     2.6832    10.4454 C.2     
  41 N41          -34.8024     2.2077    11.6879 N.pl3   
  42 C42          -34.8353     0.8594    11.6204 C.2     
  43 N43          -35.1643     0.5091    10.4072 N.2     
  44 C44          -38.3205     0.0773     4.2102 C.2     
  45 O45          -38.9630     0.0981     5.2386 O.2     
  46 N46          -36.3757     0.1961     5.6568 N.am    
  47 C47          -36.8152     0.1267     4.2610 C.3     
  48 C48          -36.2413    -1.1322     3.6076 C.3     
  49 C49          -34.7391    -1.0269     3.5478 C.ar    
  50 C50          -33.9709    -1.5002     4.5950 C.ar    
  51 C51          -32.5930    -1.4036     4.5402 C.ar    
  52 C52          -31.9834    -0.8340     3.4380 C.ar    
  53 C53          -32.7516    -0.3615     2.3904 C.ar    
  54 C54          -34.1293    -0.4621     2.4433 C.ar    
  55 C55          -40.8541    -0.7038     1.6935 C.2     
  56 O56          -40.0254    -1.0994     0.9012 O.2     
  57 N57          -38.9528     0.0101     3.0219 N.am    
  58 C58          -40.4162    -0.0379     2.9725 C.3     
  59 C59          -40.9752     1.3854     3.0237 C.3     
  60 C60          -40.6363     2.0181     4.3749 C.3     
  61 C61          -41.1953     3.4414     4.4261 C.3     
  62 N62          -40.8708     4.0472     5.7199 N.pl3   
  63 C63          -41.2731     5.3322     5.9975 C.2     
  64 N64          -40.9844     5.8712     7.1486 N.2     
  65 N65          -41.9800     6.0487     5.0610 N.pl3   
  66 C66          -43.9785    -1.0390    -0.1743 C.2     
  67 O67          -44.5542    -0.2430     0.5370 O.2     
  68 N68          -42.1667    -0.8598     1.4301 N.am    
  69 C69          -42.5924    -1.5072     0.1868 C.3     
  70 C70          -42.6006    -3.0250     0.3790 C.3     
  71 C71          -41.1721    -3.5160     0.6224 C.3     
  72 C72          -41.1804    -5.0339     0.8147 C.3     
  73 C73          -39.7519    -5.5249     1.0581 C.3     
  74 N74          -39.7598    -6.9822     1.2427 N.3     
  75 C75          -46.6016    -2.0916    -2.4926 C.2     
  76 O76          -46.0152    -3.1136    -2.7798 O.2     
  77 N77          -44.5786    -1.5050    -1.2876 N.am    
  78 C78          -45.9261    -1.0498    -1.6385 C.3     
  79 C79          -45.8342     0.2651    -2.4153 C.3     
  80 C80          -45.2626     1.3553    -1.5067 C.3     
  81 C81          -45.1720     2.6505    -2.2718 C.2     
  82 O82          -45.5281     2.6968    -3.4254 O.2     
  83 O83          -44.6958     3.7526    -1.6716 O.3     
  84 C84          -49.5740    -2.2450    -4.6150 C.2     
  85 O85          -49.7622    -1.0497    -4.5336 O.2     
  86 N86          -47.8575    -1.8876    -2.9372 N.am    
  87 C87          -48.5142    -2.9004    -3.7675 C.3     
  88 C88          -49.1608    -3.9560    -2.8683 C.3     
  89 C89          -48.0721    -4.7069    -2.0992 C.3     
  90 C90          -48.7187    -5.7625    -1.2000 C.3     
  91 N91          -47.6762    -6.4816    -0.4636 N.pl3   
  92 C92          -48.0204    -7.4837     0.4125 C.2     
  93 N93          -49.2741    -7.7940     0.5879 N.2     
  94 N94          -47.0420    -8.1585     1.1037 N.pl3   
  95 C95          -52.5639    -3.3404    -6.2977 C.2     
  96 O96          -52.4495    -4.4605    -5.8471 O.2     
  97 N97          -50.3126    -2.9872    -5.4636 N.am    
  98 C98          -51.4138    -2.3708    -6.2076 C.3     
  99 C99          -50.9386    -2.0108    -7.6167 C.3     
 100 C100         -50.3265    -3.2464    -8.2797 C.3     
 101 C101         -51.4257    -4.2742    -8.5560 C.3     
 102 C102         -49.8865    -0.9032    -7.5328 C.3     
 103 C103         -55.6775    -3.5067    -8.2059 C.2     
 104 O104         -55.4221    -2.4910    -8.8176 O.2     
 105 N105         -53.7197    -2.9627    -6.8791 N.am    
 106 C106         -54.8023    -3.9338    -7.0559 C.3     
 107 C107         -55.6389    -4.0035    -5.7768 C.3     
 108 C108         -54.7817    -4.5560    -4.6362 C.3     
 109 C109         -55.6057    -4.6246    -3.3763 C.2     
 110 O110         -56.7601    -4.2681    -3.3893 O.2     
 111 O111         -55.0572    -5.0817    -2.2397 O.3     
 112 C112         -58.7084    -4.8369    -9.8544 C.2     
 113 O113         -58.7840    -5.8008    -9.1223 O.2     
 114 N114         -56.7440    -4.2532    -8.5546 N.am    
 115 C115         -57.5948    -3.8380    -9.6726 C.3     
 116 C116         -61.1535    -5.5492   -12.4880 C.2     
 117 O117         -61.0953    -4.4788   -13.0552 O.2     
 118 N118         -59.6205    -4.6591   -10.8307 N.am    
 119 C119         -60.6374    -5.6841   -11.0785 C.3     
 120 C120         -61.7936    -5.5043   -10.0927 C.3     
 121 C121         -62.7682    -6.6756   -10.2305 C.3     
 122 C122         -62.0726    -7.9705    -9.8057 C.3     
 123 C123         -63.9859    -6.4338    -9.3364 C.3     
 124 C124         -63.1688    -7.5419   -14.7969 C.2     
 125 O125         -63.5272    -8.2983   -13.9192 O.2     
 126 N126         -61.6795    -6.6182   -13.1182 N.am    
 127 C127         -62.1108    -6.5067   -14.5138 C.3     
 128 C128         -60.9129    -6.7359   -15.4376 C.3     
 129 C129         -59.8929    -5.6130   -15.2383 C.3     
 130 C130         -58.6950    -5.8422   -16.1621 C.3     
 131 N131         -57.7184    -4.7671   -15.9712 N.pl3   
 132 C132         -56.5520    -4.7607   -16.6989 C.2     
 133 N133         -56.3151    -5.7112   -17.5588 N.2     
 134 N134         -55.6355    -3.7517   -16.5198 N.pl3   
 135 C135         -64.7542    -8.9527   -17.7733 C.2     
 136 O136         -63.9781    -8.3945   -18.5196 O.2     
 137 N137         -63.7166    -7.6272   -16.0253 N.am    
 138 C138         -64.7450    -8.6335   -16.3005 C.3     
 139 C139         -66.1142    -8.0895   -15.8880 C.3     
 140 C140         -66.1454    -7.8828   -14.3723 C.3     
 141 C141         -67.5146    -7.3388   -13.9598 C.3     
 142 C142         -67.5458    -7.1322   -12.4441 C.3     
 143 N143         -68.8604    -6.6098   -12.0481 N.3     
 144 C144         -66.9953   -10.6807   -20.0874 C.2     
 145 O145         -67.8717   -10.7769   -19.2546 O.2     
 146 N146         -65.6249    -9.8584   -18.2611 N.am    
 147 C147         -65.6339   -10.1687   -19.6928 C.3     
 148 C148         -64.5811   -11.2385   -19.9895 C.3     
 149 C149         -63.1872   -10.6747   -19.7062 C.3     
 150 C150         -62.1344   -11.7444   -20.0028 C.3     
 151 N151         -60.7998   -11.2046   -19.7316 N.pl3   
 152 C152         -59.6880   -11.9894   -19.9271 C.2     
 153 N153         -59.8214   -13.2138   -20.3537 N.2     
 154 N154         -58.4355   -11.4828   -19.6725 N.pl3   
 155 C155         -68.4369   -12.3958   -22.9758 C.2     
 156 O156         -67.3493   -12.5795   -23.4800 O.2     
 157 N157         -67.2388   -11.0316   -21.3657 N.am    
 158 C158         -68.5622   -11.5293   -21.7492 C.3     
 159 C159         -69.4838   -10.3462   -22.0525 C.3     
 160 C160         -69.7108    -9.5359   -20.7747 C.3     
 161 C161         -70.6324    -8.3529   -21.0779 C.3     
 162 N162         -70.8497    -7.5770   -19.8544 N.pl3   
 163 C163         -71.6499    -6.4594   -19.8822 C.2     
 164 N164         -72.2152    -6.0901   -20.9971 N.2     
 165 N165         -71.8539    -5.7313   -18.7340 N.pl3   
 166 C166         -70.7219   -13.8178   -25.4497 C.2     
 167 O167         -71.6645   -13.1830   -25.0261 O.2     
 168 N168         -69.5336   -12.9665   -23.5126 N.am    
 169 C169         -69.4118   -13.8089   -24.7050 C.3     
 170 C170         -69.0532   -15.2362   -24.2866 C.3     
 171 C171         -67.6660   -15.2453   -23.6413 C.3     
 172 C172         -67.3074   -16.6726   -23.2229 C.3     
 173 N173         -65.9792   -16.6813   -22.6050 N.pl3   
 174 C174         -65.4416   -17.8610   -22.1473 C.2     
 175 N175         -66.1138   -18.9717   -22.2632 N.2     
 176 N176         -64.1951   -17.8691   -21.5674 N.pl3   
 177 C177         -72.2249   -15.8022   -28.1266 C.2     
 178 O178         -71.3247   -16.6147   -28.1057 O.2     
 179 N179         -70.8461   -14.5311   -26.5864 N.am    
 180 C180         -72.1197   -14.5398   -27.3103 C.3     
 181 C181         -72.1871   -13.3253   -28.2384 C.3     
 182 C182         -72.2058   -12.0445   -27.4017 C.3     
 183 C183         -72.1473   -10.8288   -28.3288 C.3     
 184 C184         -73.4922   -11.9941   -26.5750 C.3     
 185 C185         -74.3509   -17.0252   -30.8373 C.2     
 186 O186         -74.8758   -15.9424   -30.9891 O.2     
 187 N187         -73.3195   -16.0284   -28.8798 N.am    
 188 C188         -73.4218   -17.2556   -29.6733 C.3     
 189 C189         -73.9706   -18.3844   -28.7984 C.3     
 190 C190         -72.9673   -18.7028   -27.6880 C.3     
 191 C191         -73.5683   -19.7430   -26.7405 C.3     
 192 C192         -71.6822   -19.2577   -28.3056 C.3     
 193 C193         -76.9247   -18.0251   -32.4004 C.2     
 194 O194         -77.1604   -18.3414   -31.2584 O.2     
 195 N195         -74.5984   -18.0223   -31.7096 N.am    
 196 C196         -75.5015   -17.7983   -32.8411 C.3     
 197 C197         -75.1559   -18.7716   -33.9699 C.3     
 198 C198         -73.7768   -18.4640   -34.4937 C.2     
 199 C199         -73.4777   -17.6906   -35.5493 C.2     
 200 N200         -72.1213   -17.6432   -35.7237 N.pl3   
 201 C201         -71.4986   -18.4044   -34.7599 C.ar    
 202 C202         -70.1673   -18.6945   -34.4812 C.ar    
 203 C203         -69.8532   -19.5113   -33.4168 C.ar    
 204 C204         -70.8528   -20.0489   -32.6181 C.ar    
 205 C205         -72.1675   -19.7773   -32.8743 C.ar    
 206 C206         -72.5080   -18.9472   -33.9437 C.ar    
 207 O207         -77.9305   -17.8757   -33.2767 O.3     
 208 C208         -14.8500     6.2854    14.2081 C.2     
 209 O209         -15.0074     5.9746    13.0470 O.2     
 210 C210          -1.8541    18.4291     8.3070 C.3     
 211 C211          -2.8810    17.3580     7.9343 C.3     
 212 C212          -3.5661    16.8450     9.2025 C.3     
 213 C213          -4.5931    15.7739     8.8297 C.3     
 214 C214          -5.2782    15.2609    10.0979 C.3     
 215 C215          -6.3052    14.1898     9.7252 C.3     
 216 C216          -6.9902    13.6768    10.9934 C.3     
 217 C217          -8.0172    12.6057    10.6206 C.3     
 218 C218          -8.7023    12.0927    11.8889 C.3     
 219 C219          -9.7293    11.0216    11.5161 C.3     
 220 C220         -10.4144    10.5086    12.7843 C.3     
 221 C221         -11.4413     9.4375    12.4116 C.3     
 222 C222         -12.1264     8.9245    13.6798 C.3     
 223 C223         -13.1534     7.8534    13.3070 C.3     
 224 C224         -13.8385     7.3404    14.5753 C.3     
 225 H225         -18.6989     1.1877    18.0159 H       
 226 H226         -17.6954     0.8832    16.7250 H       
 227 H227         -19.5870     3.1321    16.9643 H       
 228 H228         -17.6596     2.3017    14.7497 H       
 229 H229         -18.9093     3.5581    14.5828 H       
 230 H230         -17.8842     4.8260    16.4510 H       
 231 H231         -16.6344     3.5697    16.6179 H       
 232 H232         -15.4538     5.9362    16.0997 H       
 233 H233         -21.3956     2.9165    15.2746 H       
 234 H234         -21.6901     0.2622    14.0933 H       
 235 H235         -23.7956    -0.2417    15.2362 H       
 236 H236         -21.6004     0.5344    17.2099 H       
 237 H237         -22.9250    -0.6112    17.5283 H       
 238 H238         -21.6898    -0.9963    16.3060 H       
 239 H239         -23.3527     2.2250    16.7019 H       
 240 H240         -24.1295     0.2729    13.0002 H       
 241 H241         -24.9178     3.0423    12.3772 H       
 242 H242         -25.0459     2.4347     9.9297 H       
 243 H243         -23.6268     0.4758     9.2175 H       
 244 H244         -23.4994     0.0029    10.9288 H       
 245 H245         -25.8795    -0.3459    11.0956 H       
 246 H246         -26.1632     0.4098     9.5091 H       
 247 H247         -25.3463    -1.1685     9.6099 H       
 248 H248         -22.2591     2.1786    11.1436 H       
 249 H249         -22.6621     2.7681     9.5132 H       
 250 H250         -23.1310     3.7174    10.9440 H       
 251 H251         -27.1023     2.8517    10.9080 H       
 252 H252         -28.4705     0.2987    11.2794 H       
 253 H253         -30.3856     1.3187    12.4797 H       
 254 H254         -28.8878     1.4580    13.4312 H       
 255 H255         -29.5160     2.8703    12.5486 H       
 256 H256         -30.9705     0.7661    10.3881 H       
 257 H257         -30.6444     1.5377     7.6909 H       
 258 H258         -31.3409     2.9093     8.5864 H       
 259 H259         -33.1217     2.0437     6.7581 H       
 260 H260         -34.6725    -0.1958     7.8103 H       
 261 H261         -35.7184     2.6702     7.8484 H       
 262 H262         -36.7277     1.2232     8.0847 H       
 263 H263         -35.1906     3.7200    10.1500 H       
 264 H264         -34.5900     2.7399    12.4706 H       
 265 H265         -34.6277     0.1831    12.4365 H       
 266 H266         -36.9449    -0.1492     6.3622 H       
 267 H267         -36.4622     1.0075     3.7247 H       
 268 H268         -36.5211    -2.0064     4.1953 H       
 269 H269         -36.6391    -1.2309     2.5976 H       
 270 H270         -34.4472    -1.9452     5.4561 H       
 271 H271         -31.9928    -1.7727     5.3586 H       
 272 H272         -30.9069    -0.7579     3.3954 H       
 273 H273         -32.2753     0.0837     1.5294 H       
 274 H274         -34.7293    -0.0963     1.6232 H       
 275 H275         -38.4390    -0.0065     2.1993 H       
 276 H276         -40.7901    -0.6059     3.8244 H       
 277 H277         -40.5325     1.9786     2.2235 H       
 278 H278         -42.0575     1.3555     2.8977 H       
 279 H279         -41.0789     1.4249     5.1751 H       
 280 H280         -39.5540     2.0481     4.5009 H       
 281 H281         -40.7526     4.0346     3.6260 H       
 282 H282         -42.2776     3.4115     4.3002 H       
 283 H283         -40.3721     3.5417     6.3807 H       
 284 H284         -41.2683     6.7779     7.3445 H       
 285 H285         -42.1948     5.6476     4.2043 H       
 286 H286         -42.2639     6.9553     5.2568 H       
 287 H287         -42.8294    -0.5434     2.0638 H       
 288 H288         -41.9006    -1.2461    -0.6141 H       
 289 H289         -43.2233    -3.2793     1.2367 H       
 290 H290         -43.0014    -3.5024    -0.5153 H       
 291 H291         -40.5494    -3.2618    -0.2353 H       
 292 H292         -40.7713    -3.0387     1.5167 H       
 293 H293         -41.8031    -5.2882     1.6724 H       
 294 H294         -41.5811    -5.5112    -0.0796 H       
 295 H295         -39.1291    -5.2707     0.2004 H       
 296 H296         -39.3511    -5.0476     1.9524 H       
 297 H297         -40.1863    -7.4443     0.4536 H       
 298 H298         -38.8271    -7.3312     1.4053 H       
 299 H299         -44.1182    -2.1416    -1.8564 H       
 300 H300         -46.5057    -0.8945    -0.7285 H       
 301 H301         -45.1817     0.1324    -3.2783 H       
 302 H302         -46.8283     0.5579    -2.7530 H       
 303 H303         -45.9150     1.4880    -0.6436 H       
 304 H304         -44.2684     1.0625    -1.1689 H       
 305 H305         -44.6567     4.5597    -2.2028 H       
 306 H306         -48.3265    -1.0702    -2.7075 H       
 307 H307         -47.7755    -3.3759    -4.4128 H       
 308 H308         -49.8341    -3.4691    -2.1628 H       
 309 H309         -49.7238    -4.6598    -3.4813 H       
 310 H310         -47.3988    -5.1938    -2.8048 H       
 311 H311         -47.5090    -4.0031    -1.4862 H       
 312 H312         -49.3920    -5.2757    -0.4945 H       
 313 H313         -49.2818    -6.4664    -1.8130 H       
 314 H314         -46.7432    -6.2507    -0.5941 H       
 315 H315         -49.5169    -8.5010     1.2061 H       
 316 H316         -46.1090    -7.9276     0.9732 H       
 317 H317         -47.2848    -8.8655     1.7218 H       
 318 H318         -50.1151    -3.9295    -5.5816 H       
 319 H319         -51.7397    -1.4674    -5.6922 H       
 320 H320         -51.7857    -1.6633    -8.2081 H       
 321 H321         -49.8541    -2.9584    -9.2189 H       
 322 H322         -49.5798    -3.6825    -7.6162 H       
 323 H323         -51.0212    -5.0848    -9.1622 H       
 324 H324         -51.7935    -4.6755    -7.6116 H       
 325 H325         -52.2455    -3.7947    -9.0909 H       
 326 H326         -48.9900    -1.2896    -7.0480 H       
 327 H327         -49.6377    -0.5615    -8.5375 H       
 328 H328         -50.2823    -0.0693    -6.9530 H       
 329 H329         -53.8348    -2.0480    -7.1805 H       
 330 H330         -54.3787    -4.9158    -7.2669 H       
 331 H331         -55.9892    -3.0045    -5.5169 H       
 332 H332         -56.4952    -4.6583    -5.9379 H       
 333 H333         -54.4314    -5.5549    -4.8960 H       
 334 H334         -53.9254    -3.9011    -4.4751 H       
 335 H335         -55.6251    -5.1070    -1.4574 H       
 336 H336         -56.9483    -5.0655    -8.0654 H       
 337 H337         -56.9988    -3.7884   -10.5839 H       
 338 H338         -58.0184    -2.8560    -9.4616 H       
 339 H339         -59.6035    -3.8525   -11.3692 H       
 340 H340         -60.1971    -6.6723   -10.9458 H       
 341 H341         -61.4026    -5.4746    -9.0757 H       
 342 H342         -62.3140    -4.5713   -10.3093 H       
 343 H343         -63.0905    -6.7600   -11.2684 H       
 344 H344         -62.7927    -8.7887    -9.8122 H       
 345 H345         -61.2633    -8.1932   -10.5011 H       
 346 H346         -61.6662    -7.8520    -8.8013 H       
 347 H347         -64.4815    -5.5114    -9.6390 H       
 348 H348         -64.6802    -7.2683    -9.4345 H       
 349 H349         -63.6636    -6.3495    -8.2985 H       
 350 H350         -61.7726    -7.4613   -12.6476 H       
 351 H351         -62.5199    -5.5117   -14.6893 H       
 352 H352         -60.4497    -7.6938   -15.2010 H       
 353 H353         -61.2494    -6.7412   -16.4744 H       
 354 H354         -60.3562    -4.6552   -15.4748 H       
 355 H355         -59.5565    -5.6077   -14.2015 H       
 356 H356         -58.2318    -6.8001   -15.9255 H       
 357 H357         -59.0315    -5.8476   -17.1988 H       
 358 H358         -57.8947    -4.0597   -15.3313 H       
 359 H359         -55.4922    -5.7067   -18.0723 H       
 360 H360         -55.8118    -3.0443   -15.8799 H       
 361 H361         -54.8126    -3.7472   -17.0333 H       
 362 H362         -63.4299    -7.0222   -16.7273 H       
 363 H363         -64.5281    -9.5391   -15.7339 H       
 364 H364         -66.2927    -7.1376   -16.3882 H       
 365 H365         -66.8890    -8.8010   -16.1737 H       
 366 H366         -65.9669    -8.8347   -13.8721 H       
 367 H367         -65.3706    -7.1714   -14.0866 H       
 368 H368         -67.6931    -6.3869   -14.4600 H       
 369 H369         -68.2894    -8.0503   -14.2455 H       
 370 H370         -67.3673    -8.0840   -11.9439 H       
 371 H371         -66.7710    -6.4207   -12.1584 H       
 372 H372         -69.6008    -7.2206   -12.3591 H       
 373 H373         -68.9063    -6.4647   -11.0506 H       
 374 H374         -66.2457   -10.3049   -17.6642 H       
 375 H375         -65.4060    -9.2671   -20.2614 H       
 376 H376         -64.7573   -12.1074   -19.3554 H       
 377 H377         -64.6478   -11.5334   -21.0367 H       
 378 H378         -63.0110    -9.8058   -20.3403 H       
 379 H379         -63.1205   -10.3797   -18.6590 H       
 380 H380         -62.3106   -12.6133   -19.3687 H       
 381 H381         -62.2011   -12.0394   -21.0500 H       
 382 H382         -60.7005   -10.2934   -19.4141 H       
 383 H383         -59.0370   -13.7675   -20.4916 H       
 384 H384         -58.3363   -10.5716   -19.3550 H       
 385 H385         -57.6511   -12.0365   -19.8104 H       
 386 H386         -66.5378   -10.9546   -22.0317 H       
 387 H387         -68.9809   -12.1157   -20.9314 H       
 388 H388         -69.0225    -9.7108   -22.8085 H       
 389 H389         -70.4399   -10.7161   -22.4229 H       
 390 H390         -70.1721   -10.1713   -20.0187 H       
 391 H391         -68.7547    -9.1661   -20.4043 H       
 392 H392         -70.1711    -7.7175   -21.8340 H       
 393 H393         -71.5885    -8.7227   -21.4483 H       
 394 H394         -70.4290    -7.8518   -19.0247 H       
 395 H395         -72.7798    -5.3016   -21.0167 H       
 396 H396         -71.4332    -6.0061   -17.9043 H       
 397 H397         -72.4185    -4.9428   -18.7536 H       
 398 H398         -70.4034   -12.8196   -23.1093 H       
 399 H399         -68.6290   -13.4123   -25.3516 H       
 400 H400         -69.7895   -15.6007   -23.5704 H       
 401 H401         -69.0497   -15.8821   -25.1646 H       
 402 H402         -66.9297   -14.8808   -24.3575 H       
 403 H403         -67.6695   -14.5994   -22.7633 H       
 404 H404         -68.0438   -17.0371   -22.5067 H       
 405 H405         -67.3039   -17.3185   -24.1009 H       
 406 H406         -65.4790   -15.8547   -22.5188 H       
 407 H407         -65.7345   -19.8041   -21.9403 H       
 408 H408         -63.6949   -17.0425   -21.4812 H       
 409 H409         -63.8158   -18.7015   -21.2445 H       
 410 H410         -70.0922   -15.0388   -26.9252 H       
 411 H411         -72.9431   -14.4984   -26.5974 H       
 412 H412         -71.3153   -13.3192   -28.8926 H       
 413 H413         -73.0935   -13.3786   -28.8414 H       
 414 H414         -71.3442   -12.0340   -26.7340 H       
 415 H415         -73.0089   -10.8392   -28.9964 H       
 416 H416         -72.1607    -9.9163   -27.7327 H       
 417 H417         -71.2308   -10.8647   -28.9177 H       
 418 H418         -73.5339   -12.8602   -25.9145 H       
 419 H419         -73.5056   -11.0816   -25.9789 H       
 420 H420         -74.3538   -12.0045   -27.2427 H       
 421 H421         -74.0394   -15.3785   -28.8965 H       
 422 H422         -72.4349   -17.5312   -30.0452 H       
 423 H423         -74.9166   -18.0733   -28.3551 H       
 424 H424         -74.1304   -19.2727   -29.4094 H       
 425 H425         -72.7399   -17.7933   -27.1320 H       
 426 H426         -73.7957   -20.6525   -27.2966 H       
 427 H427         -72.8536   -19.9698   -25.9495 H       
 428 H428         -74.4839   -19.3476   -26.3006 H       
 429 H429         -70.9675   -19.4846   -27.5146 H       
 430 H430         -71.9096   -20.1673   -28.8616 H       
 431 H431         -71.2541   -18.5167   -28.9806 H       
 432 H432         -74.1785   -18.8883   -31.5882 H       
 433 H433         -75.3904   -16.7742   -33.1976 H       
 434 H434         -75.1808   -19.7927   -33.5896 H       
 435 H435         -75.8825   -18.6662   -34.7757 H       
 436 H436         -74.2006   -17.1814   -36.1694 H       
 437 H437         -71.6663   -17.1472   -36.4221 H       
 438 H438         -69.3822   -18.2812   -35.0971 H       
 439 H439         -68.8188   -19.7356   -33.2022 H       
 440 H440         -70.5897   -20.6873   -31.7877 H       
 441 H441         -72.9399   -20.1996   -32.2487 H       
 442 H442         -78.8263   -18.0320   -32.9476 H       
 443 H443          -2.3572    19.2561     8.8081 H       
 444 H444          -1.1074    17.9998     8.9750 H       
 445 H445          -1.3660    18.7946     7.4035 H       
 446 H446          -3.6277    17.7874     7.2663 H       
 447 H447          -2.3779    16.5311     7.4332 H       
 448 H448          -2.8194    16.4157     9.8705 H       
 449 H449          -4.0692    17.6720     9.7036 H       
 450 H450          -5.3398    16.2033     8.1617 H       
 451 H451          -4.0900    14.9470     8.3286 H       
 452 H452          -4.5315    14.8315    10.7659 H       
 453 H453          -5.7813    16.0879    10.5990 H       
 454 H454          -7.0518    14.6192     9.0572 H       
 455 H455          -5.8021    13.3628     9.2241 H       
 456 H456          -6.2436    13.2474    11.6614 H       
 457 H457          -7.4933    14.5038    11.4945 H       
 458 H458          -8.7639    13.0351     9.9527 H       
 459 H459          -7.5141    11.7787    10.1196 H       
 460 H460          -7.9556    11.6633    12.5569 H       
 461 H461          -9.2054    12.9197    12.3899 H       
 462 H462         -10.4760    11.4510    10.8481 H       
 463 H463          -9.2262    10.1946    11.0150 H       
 464 H464          -9.6677    10.0792    13.4523 H       
 465 H465         -10.9175    11.3356    13.2854 H       
 466 H466         -12.1880     9.8669    11.7436 H       
 467 H467         -10.9382     8.6105    11.9105 H       
 468 H468         -11.3798     8.4951    14.3478 H       
 469 H469         -12.6295     9.7515    14.1809 H       
 470 H470         -13.9001     8.2828    12.6390 H       
 471 H471         -12.6503     7.0264    12.8060 H       
 472 H472         -14.3416     8.1674    15.0763 H       
 473 H473         -13.0918     6.9110    15.2432 H       
@<TRIPOS>BOND
   1    1    2 2
   2    1    4 1
   3    1   12 am
   4    3    4 1
   5    3  225 1
   6    3  226 1
   7    4    5 1
   8    4  227 1
   9    5    6 1
  10    5  228 1
  11    5  229 1
  12    6    7 1
  13    6  230 1
  14    6  231 1
  15    7    8 2
  16    7    9 am
  17    9  208 am
  18    9  232 1
  19   10   11 2
  20   10   13 1
  21   10   19 am
  22   12   13 1
  23   12  233 1
  24   13   14 1
  25   13  234 1
  26   14   15 1
  27   14   16 1
  28   14  235 1
  29   15  236 1
  30   15  237 1
  31   15  238 1
  32   16  239 1
  33   17   18 2
  34   17   20 1
  35   17   27 am
  36   19   20 1
  37   19  240 1
  38   20   21 1
  39   20  241 1
  40   21   22 1
  41   21   24 1
  42   21  242 1
  43   22   23 1
  44   22  243 1
  45   22  244 1
  46   23  245 1
  47   23  246 1
  48   23  247 1
  49   24  248 1
  50   24  249 1
  51   24  250 1
  52   25   26 2
  53   25   28 1
  54   25   32 am
  55   27   28 1
  56   27  251 1
  57   28   29 1
  58   28  252 1
  59   29  253 1
  60   29  254 1
  61   29  255 1
  62   30   31 2
  63   30   33 1
  64   30   36 am
  65   32   33 1
  66   32  256 1
  67   33  257 1
  68   33  258 1
  69   34   35 2
  70   34   37 1
  71   34   46 am
  72   36   37 1
  73   36  259 1
  74   37   38 1
  75   37  260 1
  76   38   39 1
  77   38  261 1
  78   38  262 1
  79   39   40 2
  80   39   43 1
  81   40   41 1
  82   40  263 1
  83   41   42 1
  84   41  264 1
  85   42   43 2
  86   42  265 1
  87   44   45 2
  88   44   47 1
  89   44   57 am
  90   46   47 1
  91   46  266 1
  92   47   48 1
  93   47  267 1
  94   48   49 1
  95   48  268 1
  96   48  269 1
  97   49   50 ar
  98   49   54 ar
  99   50   51 ar
 100   50  270 1
 101   51   52 ar
 102   51  271 1
 103   52   53 ar
 104   52  272 1
 105   53   54 ar
 106   53  273 1
 107   54  274 1
 108   55   56 2
 109   55   58 1
 110   55   68 am
 111   57   58 1
 112   57  275 1
 113   58   59 1
 114   58  276 1
 115   59   60 1
 116   59  277 1
 117   59  278 1
 118   60   61 1
 119   60  279 1
 120   60  280 1
 121   61   62 1
 122   61  281 1
 123   61  282 1
 124   62   63 1
 125   62  283 1
 126   63   64 2
 127   63   65 1
 128   64  284 1
 129   65  285 1
 130   65  286 1
 131   66   67 2
 132   66   69 1
 133   66   77 am
 134   68   69 1
 135   68  287 1
 136   69   70 1
 137   69  288 1
 138   70   71 1
 139   70  289 1
 140   70  290 1
 141   71   72 1
 142   71  291 1
 143   71  292 1
 144   72   73 1
 145   72  293 1
 146   72  294 1
 147   73   74 1
 148   73  295 1
 149   73  296 1
 150   74  297 1
 151   74  298 1
 152   75   76 2
 153   75   78 1
 154   75   86 am
 155   77   78 1
 156   77  299 1
 157   78   79 1
 158   78  300 1
 159   79   80 1
 160   79  301 1
 161   79  302 1
 162   80   81 1
 163   80  303 1
 164   80  304 1
 165   81   82 2
 166   81   83 1
 167   83  305 1
 168   84   85 2
 169   84   87 1
 170   84   97 am
 171   86   87 1
 172   86  306 1
 173   87   88 1
 174   87  307 1
 175   88   89 1
 176   88  308 1
 177   88  309 1
 178   89   90 1
 179   89  310 1
 180   89  311 1
 181   90   91 1
 182   90  312 1
 183   90  313 1
 184   91   92 1
 185   91  314 1
 186   92   93 2
 187   92   94 1
 188   93  315 1
 189   94  316 1
 190   94  317 1
 191   95   96 2
 192   95   98 1
 193   95  105 am
 194   97   98 1
 195   97  318 1
 196   98   99 1
 197   98  319 1
 198   99  100 1
 199   99  102 1
 200   99  320 1
 201  100  101 1
 202  100  321 1
 203  100  322 1
 204  101  323 1
 205  101  324 1
 206  101  325 1
 207  102  326 1
 208  102  327 1
 209  102  328 1
 210  103  104 2
 211  103  106 1
 212  103  114 am
 213  105  106 1
 214  105  329 1
 215  106  107 1
 216  106  330 1
 217  107  108 1
 218  107  331 1
 219  107  332 1
 220  108  109 1
 221  108  333 1
 222  108  334 1
 223  109  110 2
 224  109  111 1
 225  111  335 1
 226  112  113 2
 227  112  115 1
 228  112  118 am
 229  114  115 1
 230  114  336 1
 231  115  337 1
 232  115  338 1
 233  116  117 2
 234  116  119 1
 235  116  126 am
 236  118  119 1
 237  118  339 1
 238  119  120 1
 239  119  340 1
 240  120  121 1
 241  120  341 1
 242  120  342 1
 243  121  122 1
 244  121  123 1
 245  121  343 1
 246  122  344 1
 247  122  345 1
 248  122  346 1
 249  123  347 1
 250  123  348 1
 251  123  349 1
 252  124  125 2
 253  124  127 1
 254  124  137 am
 255  126  127 1
 256  126  350 1
 257  127  128 1
 258  127  351 1
 259  128  129 1
 260  128  352 1
 261  128  353 1
 262  129  130 1
 263  129  354 1
 264  129  355 1
 265  130  131 1
 266  130  356 1
 267  130  357 1
 268  131  132 1
 269  131  358 1
 270  132  133 2
 271  132  134 1
 272  133  359 1
 273  134  360 1
 274  134  361 1
 275  135  136 2
 276  135  138 1
 277  135  146 am
 278  137  138 1
 279  137  362 1
 280  138  139 1
 281  138  363 1
 282  139  140 1
 283  139  364 1
 284  139  365 1
 285  140  141 1
 286  140  366 1
 287  140  367 1
 288  141  142 1
 289  141  368 1
 290  141  369 1
 291  142  143 1
 292  142  370 1
 293  142  371 1
 294  143  372 1
 295  143  373 1
 296  144  145 2
 297  144  147 1
 298  144  157 am
 299  146  147 1
 300  146  374 1
 301  147  148 1
 302  147  375 1
 303  148  149 1
 304  148  376 1
 305  148  377 1
 306  149  150 1
 307  149  378 1
 308  149  379 1
 309  150  151 1
 310  150  380 1
 311  150  381 1
 312  151  152 1
 313  151  382 1
 314  152  153 2
 315  152  154 1
 316  153  383 1
 317  154  384 1
 318  154  385 1
 319  155  156 2
 320  155  158 1
 321  155  168 am
 322  157  158 1
 323  157  386 1
 324  158  159 1
 325  158  387 1
 326  159  160 1
 327  159  388 1
 328  159  389 1
 329  160  161 1
 330  160  390 1
 331  160  391 1
 332  161  162 1
 333  161  392 1
 334  161  393 1
 335  162  163 1
 336  162  394 1
 337  163  164 2
 338  163  165 1
 339  164  395 1
 340  165  396 1
 341  165  397 1
 342  166  167 2
 343  166  169 1
 344  166  179 am
 345  168  169 1
 346  168  398 1
 347  169  170 1
 348  169  399 1
 349  170  171 1
 350  170  400 1
 351  170  401 1
 352  171  172 1
 353  171  402 1
 354  171  403 1
 355  172  173 1
 356  172  404 1
 357  172  405 1
 358  173  174 1
 359  173  406 1
 360  174  175 2
 361  174  176 1
 362  175  407 1
 363  176  408 1
 364  176  409 1
 365  177  178 2
 366  177  180 1
 367  177  187 am
 368  179  180 1
 369  179  410 1
 370  180  181 1
 371  180  411 1
 372  181  182 1
 373  181  412 1
 374  181  413 1
 375  182  183 1
 376  182  184 1
 377  182  414 1
 378  183  415 1
 379  183  416 1
 380  183  417 1
 381  184  418 1
 382  184  419 1
 383  184  420 1
 384  185  186 2
 385  185  188 1
 386  185  195 am
 387  187  188 1
 388  187  421 1
 389  188  189 1
 390  188  422 1
 391  189  190 1
 392  189  423 1
 393  189  424 1
 394  190  191 1
 395  190  192 1
 396  190  425 1
 397  191  426 1
 398  191  427 1
 399  191  428 1
 400  192  429 1
 401  192  430 1
 402  192  431 1
 403  193  194 2
 404  193  196 1
 405  193  207 1
 406  195  196 1
 407  195  432 1
 408  196  197 1
 409  196  433 1
 410  197  198 1
 411  197  434 1
 412  197  435 1
 413  198  199 2
 414  198  206 1
 415  199  200 1
 416  199  436 1
 417  200  201 1
 418  200  437 1
 419  201  202 ar
 420  201  206 ar
 421  202  203 ar
 422  202  438 1
 423  203  204 ar
 424  203  439 1
 425  204  205 ar
 426  204  440 1
 427  205  206 ar
 428  205  441 1
 429  207  442 1
 430  208  209 2
 431  208  224 1
 432  210  211 1
 433  210  443 1
 434  210  444 1
 435  210  445 1
 436  211  212 1
 437  211  446 1
 438  211  447 1
 439  212  213 1
 440  212  448 1
 441  212  449 1
 442  213  214 1
 443  213  450 1
 444  213  451 1
 445  214  215 1
 446  214  452 1
 447  214  453 1
 448  215  216 1
 449  215  454 1
 450  215  455 1
 451  216  217 1
 452  216  456 1
 453  216  457 1
 454  217  218 1
 455  217  458 1
 456  217  459 1
 457  218  219 1
 458  218  460 1
 459  218  461 1
 460  219  220 1
 461  219  462 1
 462  219  463 1
 463  220  221 1
 464  220  464 1
 465  220  465 1
 466  221  222 1
 467  221  466 1
 468  221  467 1
 469  222  223 1
 470  222  468 1
 471  222  469 1
 472  223  224 1
 473  223  470 1
 474  223  471 1
 475  224  472 1
 476  224  473 1

#	End of record

