#	Name: ASD05313162
#	Creating user name:	WinNT
#	Creation time:	15. 06. 2019 20:58

#	Modifying user name:	WinNT
#	Modification time:	15. 06. 2019 20:58

#	Program:	/corina/corina34_cracker 3.40 0067  02.08.2006

@<TRIPOS>MOLECULE
ASD05313162
  35   38    0    0    0
SMALL
NO_CHARGES


@<TRIPOS>ATOM
   1 C1            -0.0723     0.8187     1.0227 C.2     
   2 C2             0.1135    -0.6180     0.5957 C.3     
   3 N3             0.9304     1.7315     1.0488 N.pl3   
   4 N4             1.4568    -0.7179    -0.0057 N.am    
   5 C5             2.5711    -0.0364     0.6703 C.3     
   6 C6             2.3170     1.4758     0.6628 C.3     
   7 N7            -0.9061     2.6419     1.7067 N.2     
   8 N8            -1.1580     1.4098     1.4249 N.2     
   9 C9             0.3716     2.8928     1.4937 C.2     
  10 O10            2.3906     4.3821     1.7610 O.3     
  11 N11            2.6505     5.5493     1.9391 N.2     
  12 C12            1.5757     6.2810     2.0220 C.2     
  13 C13            0.4803     5.4076     1.8677 C.2     
  14 C14            1.0617     4.1780     1.7000 C.2     
  15 C15            1.6573    -1.4142    -1.1421 C.2     
  16 O16            2.7491    -1.4041    -1.6766 O.2     
  17 C17            0.5504    -2.1897    -1.7381 C.ar    
  18 C18            0.3189    -2.1375    -3.1155 C.ar    
  19 C19           -0.7174    -2.8648    -3.6658 C.ar    
  20 C20           -1.5259    -3.6443    -2.8558 C.ar    
  21 C21           -1.3009    -3.6996    -1.4900 C.ar    
  22 C22           -0.2656    -2.9825    -0.9287 C.ar    
  23 Cl23          -2.8276    -4.5557    -3.5549 Cl      
  24 Cl24           1.3317    -1.1601    -4.1317 Cl      
  25 H25            0.0440    -1.2755     1.4622 H       
  26 H26           -0.6443    -0.8885    -0.1395 H       
  27 H27            2.6428    -0.3886     1.6994 H       
  28 H28            3.5018    -0.2517     0.1454 H       
  29 H29            2.4953     1.8705    -0.3375 H       
  30 H30            2.9878     1.9612     1.3717 H       
  31 H31            1.5326     7.3487     2.1790 H       
  32 H32           -0.5720     5.6506     1.8793 H       
  33 H33           -0.8981    -2.8255    -4.7298 H       
  34 H34           -1.9352    -4.3096    -0.8639 H       
  35 H35           -0.0887    -3.0308     0.1356 H       
@<TRIPOS>BOND
   1    1    2 1
   2    1    3 1
   3    1    8 2
   4    2    4 1
   5    2   25 1
   6    2   26 1
   7    3    6 1
   8    3    9 1
   9    4    5 1
  10    4   15 am
  11    5    6 1
  12    5   27 1
  13    5   28 1
  14    6   29 1
  15    6   30 1
  16    7    8 1
  17    7    9 2
  18    9   14 1
  19   10   11 1
  20   10   14 1
  21   11   12 2
  22   12   13 1
  23   12   31 1
  24   13   14 2
  25   13   32 1
  26   15   16 2
  27   15   17 1
  28   17   18 ar
  29   17   22 ar
  30   18   19 ar
  31   18   24 1
  32   19   20 ar
  33   19   33 1
  34   20   21 ar
  35   20   23 1
  36   21   22 ar
  37   21   34 1
  38   22   35 1

#	End of record

