#	Name: ASD02408108
#	Creating user name:	WinNT
#	Creation time:	15. 06. 2019 20:21

#	Modifying user name:	WinNT
#	Modification time:	15. 06. 2019 20:21

#	Program:	/corina/corina34_cracker 3.40 0067  02.08.2006

@<TRIPOS>MOLECULE
ASD02408108
  48   50    0    0    0
SMALL
NO_CHARGES


@<TRIPOS>ATOM
   1 C1             0.1021     1.1868     0.0325 C.ar    
   2 C2             0.1836    -0.1913     0.0784 C.ar    
   3 C3             1.3599     2.0165     0.0171 C.3     
   4 C4             1.6979     2.4427     1.4225 C.2     
   5 N5             2.7944     3.1976     1.6282 N.am    
   6 N6             0.9153     2.0725     2.3995 N.2     
   7 C7             1.1657     2.4218     3.6678 C.2     
   8 C8             2.2962     3.2047     3.9545 C.2     
   9 C9             3.1267     3.5975     2.8736 C.2     
  10 N10            0.3260     2.0194     4.6772 N.pl3   
  11 C11            0.7345     1.6912     6.0552 C.3     
  12 O12            4.1202     4.2771     3.0659 O.2     
  13 C13           -0.9703    -0.9533     0.0926 C.ar    
  14 C14           -2.2080    -0.3382     0.0610 C.ar    
  15 C15           -2.2949     1.0399     0.0146 C.ar    
  16 C16           -1.1389     1.8063    -0.0051 C.ar    
  17 O17           -1.2218     3.1620    -0.0507 O.3     
  18 C18           -2.5322     3.7314    -0.0763 C.3     
  19 C19           -2.4245     5.2568    -0.1265 C.3     
  20 C20           -0.3730     0.7451     6.5825 C.3     
  21 C21           -1.6420     1.3599     5.9352 C.3     
  22 C22           -1.1302     1.8508     4.5644 C.3     
  23 C23           -1.7898     3.1850     4.2100 C.3     
  24 O24           -1.5945     4.1119     5.2800 O.3     
  25 C25            2.5984     3.5990     5.2976 C.1     
  26 N26            2.8382     3.9119     6.3630 N.1     
  27 H27            1.1493    -0.6741     0.1028 H       
  28 H28            2.1801     1.4255    -0.3905 H       
  29 H29            1.2052     2.8995    -0.6030 H       
  30 H30            3.3495     3.4555     0.8756 H       
  31 H31            1.6987     1.1829     6.0541 H       
  32 H32            0.7819     2.5952     6.6623 H       
  33 H33           -0.9045    -2.0307     0.1281 H       
  34 H34           -3.1078    -0.9355     0.0722 H       
  35 H35           -3.2621     1.5199    -0.0104 H       
  36 H36           -3.0658     3.3756    -0.9576 H       
  37 H37           -3.0748     3.4348     0.8214 H       
  38 H38           -1.8819     5.5533    -1.0242 H       
  39 H39           -3.4241     5.6911    -0.1460 H       
  40 H40           -1.8909     5.6126     0.7548 H       
  41 H41           -0.2128    -0.2756     6.2354 H       
  42 H42           -0.4326     0.7814     7.6702 H       
  43 H43           -2.4171     0.6035     5.8117 H       
  44 H44           -2.0101     2.1975     6.5278 H       
  45 H45           -1.3542     1.1090     3.7978 H       
  46 H46           -1.3410     3.5816     3.2993 H       
  47 H47           -2.8573     3.0320     4.0522 H       
  48 H48           -1.9874     4.9816     5.1236 H       
@<TRIPOS>BOND
   1    1    2 ar
   2    1    3 1
   3    1   16 ar
   4    2   13 ar
   5    2   27 1
   6    3    4 1
   7    3   28 1
   8    3   29 1
   9    4    5 1
  10    4    6 2
  11    5    9 am
  12    5   30 1
  13    6    7 1
  14    7    8 2
  15    7   10 1
  16    8    9 1
  17    8   25 1
  18    9   12 2
  19   10   11 1
  20   10   22 1
  21   11   20 1
  22   11   31 1
  23   11   32 1
  24   13   14 ar
  25   13   33 1
  26   14   15 ar
  27   14   34 1
  28   15   16 ar
  29   15   35 1
  30   16   17 1
  31   17   18 1
  32   18   19 1
  33   18   36 1
  34   18   37 1
  35   19   38 1
  36   19   39 1
  37   19   40 1
  38   20   21 1
  39   20   41 1
  40   20   42 1
  41   21   22 1
  42   21   43 1
  43   21   44 1
  44   22   23 1
  45   22   45 1
  46   23   24 1
  47   23   46 1
  48   23   47 1
  49   24   48 1
  50   25   26 3

#	End of record

