#	Name: ASD01180263
#	Creating user name:	WinNT
#	Creation time:	15. 06. 2019 19:07

#	Modifying user name:	WinNT
#	Modification time:	15. 06. 2019 19:07

#	Program:	/corina/corina34_cracker 3.40 0067  02.08.2006

@<TRIPOS>MOLECULE
ASD01180263
  39   40    0    0    0
SMALL
NO_CHARGES


@<TRIPOS>ATOM
   1 C1             0.0992     1.5213    -0.0620 C.3     
   2 C2             0.0002    -0.0041     0.0031 C.3     
   3 C3             0.7421    -0.5109     1.2415 C.3     
   4 C4             0.0278    -0.0175     2.5014 C.3     
   5 O5             1.4656     1.9031    -0.2330 O.3     
   6 C6            -2.1566     2.9295    -3.2924 C.ar    
   7 N7            -2.6688     2.9882    -2.0708 N.ar    
   8 C8            -1.9826     2.5516    -1.0287 C.ar    
   9 C9            -0.7134     2.0282    -1.2255 C.ar    
  10 C10           -0.2080     1.9818    -2.5163 C.ar    
  11 N11           -0.9464     2.4351    -3.5146 N.ar    
  12 C12           -2.9585     3.4232    -4.4382 C.ar    
  13 C13           -2.4386     3.3705    -5.7303 C.ar    
  14 C14           -3.1893     3.8313    -6.7927 C.ar    
  15 C15           -4.4553     4.3452    -6.5770 C.ar    
  16 C16           -4.9763     4.4003    -5.2968 C.ar    
  17 C17           -4.2372     3.9362    -4.2277 C.ar    
  18 C18           -5.2700     4.8473    -7.7412 C.3     
  19 F19           -6.0376     3.7989    -8.2598 F       
  20 F20           -6.1153     5.8752    -7.3100 F       
  21 F21           -4.4133     5.3337    -8.7345 F       
  22 C22            0.7628    -2.0407     1.2331 C.3     
  23 H23           -0.2848     1.9502     0.8636 H       
  24 H24           -1.0477    -0.2980     0.0617 H       
  25 H25            0.4492    -0.4358    -0.8914 H       
  26 H26            1.7646    -0.1336     1.2323 H       
  27 H27           -0.9948    -0.3948     2.5106 H       
  28 H28            0.5563    -0.3785     3.3837 H       
  29 H29            0.0130     1.0724     2.5074 H       
  30 H30            1.8731     1.5561    -1.0383 H       
  31 H31           -2.4050     2.6023    -0.0361 H       
  32 H32            0.7768     1.5799    -2.7035 H       
  33 H33           -1.4499     2.9701    -5.8997 H       
  34 H34           -2.7874     3.7910    -7.7943 H       
  35 H35           -5.9650     4.8032    -5.1341 H       
  36 H36           -4.6469     3.9750    -3.2291 H       
  37 H37            1.1931    -2.3931     0.2957 H       
  38 H38            1.3651    -2.4005     2.0673 H       
  39 H39           -0.2550    -2.4185     1.3304 H       
@<TRIPOS>BOND
   1    1    2 1
   2    1    5 1
   3    1    9 1
   4    1   23 1
   5    2    3 1
   6    2   24 1
   7    2   25 1
   8    3    4 1
   9    3   22 1
  10    3   26 1
  11    4   27 1
  12    4   28 1
  13    4   29 1
  14    5   30 1
  15    6    7 ar
  16    6   11 ar
  17    6   12 1
  18    7    8 ar
  19    8    9 ar
  20    8   31 1
  21    9   10 ar
  22   10   11 ar
  23   10   32 1
  24   12   13 ar
  25   12   17 ar
  26   13   14 ar
  27   13   33 1
  28   14   15 ar
  29   14   34 1
  30   15   16 ar
  31   15   18 1
  32   16   17 ar
  33   16   35 1
  34   17   36 1
  35   18   19 1
  36   18   20 1
  37   18   21 1
  38   22   37 1
  39   22   38 1
  40   22   39 1

#	End of record

