#	Name: ASD01209120
#	Creating user name:	WinNT
#	Creation time:	15. 06. 2019 19:11

#	Modifying user name:	WinNT
#	Modification time:	15. 06. 2019 19:11

#	Program:	/corina/corina34_cracker 3.40 0067  02.08.2006

@<TRIPOS>MOLECULE
ASD01209120
  73   75    0    0    0
SMALL
NO_CHARGES


@<TRIPOS>ATOM
   1 C1            -0.0846     1.4336     0.0263 C.ar    
   2 C2             0.0177     0.0509    -0.0143 C.ar    
   3 C3            -1.1256    -0.7349     0.0258 C.ar    
   4 C4            -2.3741    -0.1407     0.1065 C.ar    
   5 C5            -2.4813     1.2500     0.1479 C.ar    
   6 C6            -1.3291     2.0358     0.1132 C.ar    
   7 O7             1.0381     2.1985    -0.0136 O.3     
   8 C8             0.8565     3.6137    -0.0929 C.3     
   9 C9             2.0903     4.2511    -0.7349 C.3     
  10 O10           -1.0199    -2.0891    -0.0147 O.3     
  11 C11           -1.4890    -2.7330    -1.1155 C.ar    
  12 C12           -1.5186    -4.1198    -1.1497 C.ar    
  13 C13           -3.8119     1.8886     0.2341 C.2     
  14 N14           -4.9235     1.1275     0.2726 N.am    
  15 O15           -3.9033     3.1003     0.2701 O.2     
  16 C16           -6.1842     1.7327     0.3542 C.2     
  17 C17           -6.4349     3.1135     0.4029 C.2     
  18 C18           -7.7736     3.2898     0.4776 C.2     
  19 N19           -8.3525     2.0706     0.4764 N.pl3   
  20 N20           -7.3379     1.1084     0.3928 N.2     
  21 P21          -10.4782     1.7336    -1.1416 P.3     
  22 O22           -9.7288     0.7383    -1.9403 O.2     
  23 C23          -12.2347     1.2519    -1.0633 C.3     
  24 C24            0.6624     4.1825     1.3141 C.3     
  25 C25           -1.9964    -4.7718    -2.2698 C.ar    
  26 C26           -2.4449    -4.0438    -3.3564 C.ar    
  27 C27           -2.4165    -2.6617    -3.3250 C.ar    
  28 C28           -1.9446    -2.0047    -2.2052 C.ar    
  29 S29           -3.0531    -4.8787    -4.7839 S.o2    
  30 O30           -2.8332    -3.9614    -5.8466 O.2     
  31 O31           -2.3990    -6.1399    -4.7575 O.2     
  32 C32           -4.8290    -5.0759    -4.4705 C.3     
  33 C33           -9.7908     1.8008     0.5455 C.3     
  34 O34          -10.3493     3.1825    -1.8317 O.3     
  35 C35          -10.7042     3.4302    -3.1935 C.3     
  36 C36          -11.8125     4.4837    -3.2482 C.3     
  37 C37           -9.4789     3.9391    -3.9555 C.3     
  38 O38            3.2219     4.0623     0.1171 O.3     
  39 C39            4.4333     4.6233    -0.3926 C.3     
  40 H40            0.9897    -0.4155    -0.0775 H       
  41 H41           -3.2634    -0.7528     0.1369 H       
  42 H42           -1.4077     3.1125     0.1451 H       
  43 H43           -0.0228     3.8338    -0.6983 H       
  44 H44            2.2804     3.7825    -1.7006 H       
  45 H45            1.9161     5.3177    -0.8766 H       
  46 H46           -1.1681    -4.6889    -0.3014 H       
  47 H47           -4.8505     0.1607     0.2439 H       
  48 H48           -5.6905     3.8958     0.3847 H       
  49 H49           -8.2881     4.2380     0.5293 H       
  50 H50          -12.3219     0.2710    -0.5961 H       
  51 H51          -12.7866     1.9850    -0.4750 H       
  52 H52          -12.6457     1.2118    -2.0721 H       
  53 H53            1.5417     3.9624     1.9195 H       
  54 H54            0.5238     5.2620     1.2537 H       
  55 H55           -0.2166     3.7284     1.7716 H       
  56 H56           -2.0193    -5.8513    -2.2970 H       
  57 H57           -2.7670    -2.0954    -4.1751 H       
  58 H58           -1.9225    -0.9252    -2.1812 H       
  59 H59           -5.2873    -4.0947    -4.3468 H       
  60 H60           -5.2918    -5.5895    -5.3132 H       
  61 H61           -4.9749    -5.6621    -3.5632 H       
  62 H62           -9.9578     0.8461     1.0442 H       
  63 H63          -10.2829     2.5950     1.1070 H       
  64 H64          -11.0584     2.5062    -3.6506 H       
  65 H65          -11.4584     5.4077    -2.7911 H       
  66 H66          -12.0832     4.6726    -4.2870 H       
  67 H67          -12.6854     4.1211    -2.7054 H       
  68 H68           -8.6894     3.1887    -3.9165 H       
  69 H69           -9.7497     4.1281    -4.9943 H       
  70 H70           -9.1248     4.8631    -3.4984 H       
  71 H71            5.2442     4.4377     0.3117 H       
  72 H72            4.6720     4.1625    -1.3512 H       
  73 H73            4.3077     5.6977    -0.5272 H       
@<TRIPOS>BOND
   1    1    2 ar
   2    1    7 1
   3    1    6 ar
   4    2    3 ar
   5    2   40 1
   6    3    4 ar
   7    3   10 1
   8    4    5 ar
   9    4   41 1
  10    5    6 ar
  11    5   13 1
  12    6   42 1
  13    7    8 1
  14    8    9 1
  15    8   24 1
  16    8   43 1
  17    9   38 1
  18    9   44 1
  19    9   45 1
  20   10   11 1
  21   11   12 ar
  22   11   28 ar
  23   12   25 ar
  24   12   46 1
  25   13   14 am
  26   13   15 2
  27   14   16 1
  28   14   47 1
  29   16   17 1
  30   16   20 2
  31   17   18 2
  32   17   48 1
  33   18   19 1
  34   18   49 1
  35   19   20 1
  36   19   33 1
  37   21   22 2
  38   21   23 1
  39   21   34 1
  40   21   33 1
  41   23   50 1
  42   23   51 1
  43   23   52 1
  44   24   53 1
  45   24   54 1
  46   24   55 1
  47   25   26 ar
  48   25   56 1
  49   26   27 ar
  50   26   29 1
  51   27   28 ar
  52   27   57 1
  53   28   58 1
  54   29   30 2
  55   29   31 2
  56   29   32 1
  57   32   59 1
  58   32   60 1
  59   32   61 1
  60   33   62 1
  61   33   63 1
  62   34   35 1
  63   35   36 1
  64   35   37 1
  65   35   64 1
  66   36   65 1
  67   36   66 1
  68   36   67 1
  69   37   68 1
  70   37   69 1
  71   37   70 1
  72   38   39 1
  73   39   71 1
  74   39   72 1
  75   39   73 1

#	End of record

