#	Name: ASD01913197
#	Creating user name:	WinNT
#	Creation time:	15. 06. 2019 20:01

#	Modifying user name:	WinNT
#	Modification time:	15. 06. 2019 20:01

#	Program:	/corina/corina34_cracker 3.40 0067  02.08.2006

@<TRIPOS>MOLECULE
ASD01913197
  45   48    0    0    0
SMALL
NO_CHARGES


@<TRIPOS>ATOM
   1 C1            -0.0895     1.4762    -0.2765 C.3     
   2 N2            -0.0403     0.0111    -0.2448 N.am    
   3 C3             1.3431    -0.3749    -0.5406 C.3     
   4 C4             2.1364     0.8896    -0.7534 C.ar    
   5 C5             3.4730     1.0872    -1.0554 C.ar    
   6 C6             3.9687     2.3692    -1.2018 C.ar    
   7 C7             3.1264     3.4575    -1.0465 C.ar    
   8 C8             1.7920     3.2591    -0.7455 C.ar    
   9 C9             1.2966     1.9747    -0.5986 C.ar    
  10 C10           -1.0694    -0.8216     0.0083 C.2     
  11 C11           -0.8849    -2.2814    -0.1129 C.ar    
  12 C12           -1.9821    -3.1343    -0.0019 C.ar    
  13 C13           -1.8019    -4.5109    -0.1176 C.ar    
  14 C14           -0.5161    -5.0288    -0.3450 C.ar    
  15 C15            0.5685    -4.1704    -0.4532 C.ar    
  16 C16            0.3896    -2.8083    -0.3446 C.ar    
  17 O17           -2.1498    -0.3705     0.3362 O.2     
  18 C18           -2.9230    -5.3946    -0.0045 C.1     
  19 C19           -3.8421    -6.1191     0.0882 C.1     
  20 C20           -4.9633    -7.0028     0.2012 C.ar    
  21 C21           -4.7738    -8.3826     0.0840 C.ar    
  22 C22           -5.8669    -9.2219     0.1956 C.ar    
  23 C23           -7.1161    -8.6585     0.4209 C.ar    
  24 C24           -7.2331    -7.2848     0.5268 C.ar    
  25 N25           -6.1764    -6.5052     0.4224 N.ar    
  26 O26           -0.3348    -6.3679    -0.4584 O.3     
  27 C27            0.9994    -6.8247    -0.6892 C.3     
  28 Cl28           3.7459     5.0689    -1.2292 Cl      
  29 Cl29           5.6453     2.6148    -1.5793 Cl      
  30 H30           -0.7886     1.8058    -1.0451 H       
  31 H31           -0.4022     1.8565     0.6960 H       
  32 H32            1.7578    -0.9345     0.2978 H       
  33 H33            1.3714    -0.9851    -1.4433 H       
  34 H34            4.1295     0.2382    -1.1764 H       
  35 H35            1.1348     4.1075    -0.6243 H       
  36 H36           -2.9680    -2.7295     0.1733 H       
  37 H37            1.5561    -4.5709    -0.6277 H       
  38 H38            1.2375    -2.1455    -0.4346 H       
  39 H39           -3.7880    -8.7873    -0.0916 H       
  40 H40           -5.7518   -10.2923     0.1091 H       
  41 H41           -7.9889    -9.2880     0.5123 H       
  42 H42           -8.2038    -6.8452     0.7020 H       
  43 H43            1.3733    -6.3987    -1.6202 H       
  44 H44            1.6386    -6.5115     0.1362 H       
  45 H45            1.0039    -7.9125    -0.7598 H       
@<TRIPOS>BOND
   1    1    2 1
   2    1    9 1
   3    1   30 1
   4    1   31 1
   5    2    3 1
   6    2   10 am
   7    3    4 1
   8    3   32 1
   9    3   33 1
  10    4    5 ar
  11    4    9 ar
  12    5    6 ar
  13    5   34 1
  14    6    7 ar
  15    6   29 1
  16    7    8 ar
  17    7   28 1
  18    8    9 ar
  19    8   35 1
  20   10   11 1
  21   10   17 2
  22   11   12 ar
  23   11   16 ar
  24   12   13 ar
  25   12   36 1
  26   13   14 ar
  27   13   18 1
  28   14   15 ar
  29   14   26 1
  30   15   16 ar
  31   15   37 1
  32   16   38 1
  33   18   19 3
  34   19   20 1
  35   20   21 ar
  36   20   25 ar
  37   21   22 ar
  38   21   39 1
  39   22   23 ar
  40   22   40 1
  41   23   24 ar
  42   23   41 1
  43   24   25 ar
  44   24   42 1
  45   26   27 1
  46   27   43 1
  47   27   44 1
  48   27   45 1

#	End of record

