#	Name: ASD00450050
#	Creating user name:	WinNT
#	Creation time:	15. 06. 2019 18:36

#	Modifying user name:	WinNT
#	Modification time:	15. 06. 2019 18:36

#	Program:	/corina/corina34_cracker 3.40 0067  02.08.2006

@<TRIPOS>MOLECULE
ASD00450050
  46   48    0    0    0
SMALL
NO_CHARGES


@<TRIPOS>ATOM
   1 C1            -1.0406     1.8268    -0.2033 C.ar    
   2 C2            -0.9162     0.4812     0.1757 C.ar    
   3 C3             0.1215     0.0935     1.0062 C.ar    
   4 C4             1.0364     1.0284     1.4637 C.ar    
   5 C5             0.9237     2.3588     1.0970 C.ar    
   6 C6            -0.1080     2.7681     0.2657 C.ar    
   7 C7            -2.1354     2.2479    -1.0897 C.2     
   8 O8            -3.1988     2.6021    -0.6168 O.2     
   9 N9            -1.9608     2.2415    -2.4261 N.am    
  10 N10           -0.2193     4.1032    -0.1022 N.pl3   
  11 C11            0.3520     5.0991     0.6973 C.ar    
  12 C12            0.6532     6.3429     0.1525 C.ar    
  13 C13            0.6143     4.8499     2.0378 C.ar    
  14 C14            1.1780     5.8352     2.8250 C.ar    
  15 C15            1.4817     7.0698     2.2800 C.ar    
  16 C16            1.2174     7.3246     0.9463 C.ar    
  17 F17            2.0451     0.6390     2.2737 F       
  18 F18            0.3954     6.5913    -1.1502 F       
  19 I19            2.3359     8.5601     3.4794 I       
  20 O20           -1.8100    -0.4365    -0.2699 O.3     
  21 C21           -1.6224    -1.7354     0.0858 C.ar    
  22 C22           -2.0979    -2.1969     1.3055 C.ar    
  23 C23           -1.9051    -3.5240     1.6656 C.ar    
  24 C24           -0.9609    -2.6011    -0.7726 C.ar    
  25 C25           -0.7693    -3.9226    -0.4132 C.ar    
  26 N26           -2.3835    -3.9937     2.8948 N.am    
  27 C27           -1.2364    -4.3859     0.8031 C.ar    
  28 S28           -2.7699    -2.9224     4.0970 S.o2    
  29 N29           -4.1060    -2.0829     3.5947 N.am    
  30 O30           -3.1812    -3.7015     5.2119 O.2     
  31 O31           -1.7047    -1.9836     4.1554 O.2     
  32 F32           -1.0477    -5.6776     1.1513 F       
  33 F33           -2.7466    -1.3563     2.1409 F       
  34 H34            0.2182    -0.9416     1.2988 H       
  35 H35            1.6416     3.0798     1.4593 H       
  36 H36           -1.1129     1.9590    -2.8031 H       
  37 H37           -2.6832     2.5193    -3.0109 H       
  38 H38           -0.6932     4.3449    -0.9133 H       
  39 H39            0.3774     3.8866     2.4648 H       
  40 H40            1.3816     5.6413     3.8678 H       
  41 H41            1.4519     8.2908     0.5247 H       
  42 H42           -0.5951    -2.2426    -1.7234 H       
  43 H43           -0.2541    -4.5943    -1.0840 H       
  44 H44           -2.4886    -4.9467     3.0422 H       
  45 H45           -4.5022    -2.2740     2.7302 H       
  46 H46           -4.4925    -1.4000     4.1650 H       
@<TRIPOS>BOND
   1    1    2 ar
   2    1    6 ar
   3    1    7 1
   4    2    3 ar
   5    2   20 1
   6    3    4 ar
   7    3   34 1
   8    4    5 ar
   9    4   17 1
  10    5    6 ar
  11    5   35 1
  12    6   10 1
  13    7    8 2
  14    7    9 am
  15    9   36 1
  16    9   37 1
  17   10   11 1
  18   10   38 1
  19   11   13 ar
  20   11   12 ar
  21   12   16 ar
  22   12   18 1
  23   13   14 ar
  24   13   39 1
  25   14   15 ar
  26   14   40 1
  27   15   16 ar
  28   15   19 1
  29   16   41 1
  30   20   21 1
  31   21   22 ar
  32   21   24 ar
  33   22   23 ar
  34   22   33 1
  35   23   27 ar
  36   23   26 1
  37   24   25 ar
  38   24   42 1
  39   25   27 ar
  40   25   43 1
  41   26   28 am
  42   26   44 1
  43   27   32 1
  44   28   29 am
  45   28   30 2
  46   28   31 2
  47   29   45 1
  48   29   46 1

#	End of record

