#	Name: ASD03331310
#	Creating user name:	WinNT
#	Creation time:	15. 06. 2019 20:38

#	Modifying user name:	WinNT
#	Modification time:	15. 06. 2019 20:38

#	Program:	/corina/corina34_cracker 3.40 0067  02.08.2006

@<TRIPOS>MOLECULE
ASD03331310
  54   56    0    0    0
SMALL
NO_CHARGES


@<TRIPOS>ATOM
   1 C1             0.0418     1.3797     0.1288 C.3     
   2 C2             0.0648    -0.1109    -0.0986 C.2     
   3 C3             1.2022    -0.8183    -0.3017 C.2     
   4 C4             2.5733    -0.1890    -0.3273 C.3     
   5 C5             2.3922     1.3265    -0.4921 C.3     
   6 N6             1.4045     1.8143     0.4804 N.3     
   7 N7            -0.5351    -2.2135    -0.3628 N.2     
   8 N8             0.8617    -2.1188    -0.4656 N.am    
   9 C9            -1.0155    -1.0064    -0.1423 C.2     
  10 C10            1.7124    -3.1403    -0.6878 C.2     
  11 O11            2.9073    -2.9316    -0.7569 O.2     
  12 N12            1.2375    -4.3932    -0.8334 N.am    
  13 C13           -2.4467    -0.6554     0.0294 C.ar    
  14 C14           -3.2599    -1.4222     0.8652 C.ar    
  15 C15           -4.5925    -1.0912     1.0226 C.ar    
  16 C16           -5.1210    -0.0009     0.3521 C.ar    
  17 C17           -4.3163     0.7639    -0.4801 C.ar    
  18 C18           -2.9815     0.4441    -0.6386 C.ar    
  19 F19           -4.8373     1.8262    -1.1321 F       
  20 F20           -6.4243     0.3188     0.5085 F       
  21 F21           -2.7455    -2.4866     1.5191 F       
  22 C22            1.4732     3.2758     0.6126 C.3     
  23 C23            1.4367    -6.6155    -1.7878 C.2     
  24 C24            2.1622    -5.5035    -1.0749 C.3     
  25 C25            2.6996    -6.0196     0.2614 C.3     
  26 C26            3.6002    -7.2317     0.0151 C.3     
  27 O27            0.2247    -6.6562    -1.7727 O.2     
  28 C28            3.5067    -4.9155     0.9472 C.3     
  29 C29            1.5292    -6.4278     1.1583 C.3     
  30 N30            2.1347    -7.5648    -2.4420 N.am    
  31 H31           -0.2819     1.8853    -0.7809 H       
  32 H32           -0.6413     1.6165     0.9445 H       
  33 H33            3.0932    -0.3990     0.6074 H       
  34 H34            3.1457    -0.5855    -1.1659 H       
  35 H35            3.3458     1.8265    -0.3226 H       
  36 H36            2.0442     1.5427    -1.5021 H       
  37 H37            0.2835    -4.5598    -0.7783 H       
  38 H38           -5.2226    -1.6839     1.6691 H       
  39 H39           -2.3548     1.0426    -1.2831 H       
  40 H40            0.7892     3.6023     1.3960 H       
  41 H41            2.4902     3.5696     0.8726 H       
  42 H42            1.1913     3.7398    -0.3325 H       
  43 H43            2.9922    -5.1577    -1.6911 H       
  44 H44            4.4462    -6.9356    -0.6052 H       
  45 H45            3.9648    -7.6132     0.9688 H       
  46 H46            3.0312    -8.0097    -0.4939 H       
  47 H47            2.8651    -4.0520     1.1227 H       
  48 H48            3.8895    -5.2832     1.8992 H       
  49 H49            4.3405    -4.6247     0.3083 H       
  50 H50            0.9541    -7.2144     0.6697 H       
  51 H51            1.9120    -6.7955     2.1103 H       
  52 H52            0.8875    -5.5643     1.3338 H       
  53 H53            1.6719    -8.3159    -2.8452 H       
  54 H54            3.1000    -7.4969    -2.5098 H       
@<TRIPOS>BOND
   1    1    2 1
   2    1    6 1
   3    1   31 1
   4    1   32 1
   5    2    3 2
   6    2    9 1
   7    3    4 1
   8    3    8 1
   9    4    5 1
  10    4   33 1
  11    4   34 1
  12    5    6 1
  13    5   35 1
  14    5   36 1
  15    6   22 1
  16    7    8 1
  17    7    9 2
  18    8   10 am
  19    9   13 1
  20   10   11 2
  21   10   12 am
  22   12   24 1
  23   12   37 1
  24   13   14 ar
  25   13   18 ar
  26   14   15 ar
  27   14   21 1
  28   15   16 ar
  29   15   38 1
  30   16   17 ar
  31   16   20 1
  32   17   18 ar
  33   17   19 1
  34   18   39 1
  35   22   40 1
  36   22   41 1
  37   22   42 1
  38   23   27 2
  39   23   30 am
  40   23   24 1
  41   24   25 1
  42   24   43 1
  43   25   26 1
  44   25   28 1
  45   25   29 1
  46   26   44 1
  47   26   45 1
  48   26   46 1
  49   28   47 1
  50   28   48 1
  51   28   49 1
  52   29   50 1
  53   29   51 1
  54   29   52 1
  55   30   53 1
  56   30   54 1

#	End of record

