#	Name: ASD01411008
#	Creating user name:	WinNT
#	Creation time:	15. 06. 2019 19:19

#	Modifying user name:	WinNT
#	Modification time:	15. 06. 2019 19:19

#	Program:	/corina/corina34_cracker 3.40 0067  02.08.2006

@<TRIPOS>MOLECULE
ASD01411008
  94  102    0    0    0
SMALL
NO_CHARGES


@<TRIPOS>ATOM
   1 C1             0.4682     1.6771    -0.0162 C.ar    
   2 C2             0.7338     0.2915    -0.0157 C.ar    
   3 C3            -0.3175    -0.6207    -0.0121 C.ar    
   4 C4            -1.6076    -0.1797    -0.0091 C.ar    
   5 C5            -1.8912     1.1942    -0.0100 C.ar    
   6 C6            -0.8578     2.1225    -0.0083 C.ar    
   7 N7             1.6546     2.3112    -0.0194 N.2     
   8 C8             2.6250     1.4320    -0.0210 C.2     
   9 N9             2.1017     0.1646    -0.0187 N.pl3   
  10 C10            2.8591    -1.0894    -0.0195 C.3     
  11 C11            2.5859    -1.8511     1.2790 C.3     
  12 C12            3.3769    -3.1607     1.2782 C.3     
  13 C13            2.9461    -4.0160     0.0849 C.3     
  14 C14            3.2194    -3.2543    -1.2136 C.3     
  15 C15            2.4284    -1.9447    -1.2128 C.3     
  16 C16           -3.2943     1.6556    -0.0071 C.2     
  17 O17           -3.5429     2.8456    -0.0079 O.2     
  18 N18           -4.2990     0.7573    -0.0037 N.am    
  19 C19           -5.6907     1.2149    -0.0009 C.3     
  20 C20           -6.5850     0.1316    -0.6071 C.3     
  21 C21           -6.1259     1.4910     1.4153 C.2     
  22 O22           -5.3528     1.3228     2.3285 O.2     
  23 O23           -7.3723     1.9238     1.6621 O.3     
  24 C24           -6.2305    -0.0577    -2.0596 C.2     
  25 C25           -6.8301     0.5247    -3.1101 C.2     
  26 N26           -6.2373     0.1135    -4.2724 N.pl3   
  27 C27           -5.2143    -0.7672    -3.9903 C.ar    
  28 C28           -5.1624    -0.9071    -2.5920 C.ar    
  29 C29           -4.3108    -1.4672    -4.7832 C.ar    
  30 C30           -3.3786    -2.2944    -4.1982 C.ar    
  31 C31           -3.3286    -2.4399    -2.8141 C.ar    
  32 C32           -4.2118    -1.7484    -2.0094 C.ar    
  33 O33           -2.4014    -3.2611    -2.2525 O.3     
  34 C34            4.0669     1.7567    -0.0246 C.2     
  35 O35            4.8901     0.8697     0.0920 O.2     
  36 C36            4.5071     3.1569    -0.1696 C.ar    
  37 C37            5.8562     3.4788    -0.0358 C.ar    
  38 C38            6.2628     4.8052    -0.1750 C.ar    
  39 C39            5.3043     5.7998    -0.4488 C.ar    
  40 C40            3.9620     5.4598    -0.5791 C.ar    
  41 C41            3.5674     4.1605    -0.4476 C.ar    
  42 N42            7.4700     5.4209    -0.1032 N.2     
  43 C43            7.3194     6.7065    -0.3111 C.2     
  44 N44            5.9972     6.9894    -0.5297 N.pl3   
  45 C45            5.4251     8.3107    -0.8002 C.3     
  46 C46            4.6003     8.2722    -2.0986 C.3     
  47 C47            3.1540     8.6456    -1.7131 C.3     
  48 C48            3.3072     9.4532    -0.4004 C.3     
  49 C49            4.4513     8.7061     0.3290 C.3     
  50 C50            8.4119     7.7010    -0.3095 C.2     
  51 C51            9.8410     7.4496    -0.5386 C.2     
  52 C52           10.4469     8.6440    -0.4425 C.2     
  53 O53            9.5253     9.5832    -0.1794 O.3     
  54 C54            8.3029     9.0423    -0.1013 C.2     
  55 H55           -0.1107    -1.6808    -0.0121 H       
  56 H56           -2.4177    -0.8938    -0.0063 H       
  57 H57           -1.0765     3.1801    -0.0086 H       
  58 H58            3.9242    -0.8705    -0.0951 H       
  59 H59            2.8927    -1.2418     2.1291 H       
  60 H60            1.5207    -2.0700     1.3545 H       
  61 H61            4.4420    -2.9418     1.2026 H       
  62 H62            3.1822    -3.7033     2.2032 H       
  63 H63            3.5097    -4.9490     0.0843 H       
  64 H64            1.8810    -4.2349     0.1605 H       
  65 H65            4.2845    -3.0354    -1.2891 H       
  66 H66            2.9125    -3.8636    -2.0637 H       
  67 H67            1.3633    -2.1636    -1.1372 H       
  68 H68            2.6231    -1.4020    -2.1378 H       
  69 H69           -4.1007    -0.1922    -0.0031 H       
  70 H70           -5.7744     2.1274    -0.5911 H       
  71 H71           -6.4346    -0.8056    -0.0713 H       
  72 H72           -7.6290     0.4339    -0.5244 H       
  73 H73           -7.6053     2.0873     2.5863 H       
  74 H74           -7.6581     1.2151    -3.0470 H       
  75 H75           -6.4980     0.3984    -5.1622 H       
  76 H76           -4.3409    -1.3620    -5.8576 H       
  77 H77           -2.6797    -2.8358    -4.8186 H       
  78 H78           -4.1718    -1.8619    -0.9361 H       
  79 H79           -1.5659    -2.8234    -2.0396 H       
  80 H80            6.5815     2.7066     0.1746 H       
  81 H81            3.2303     6.2261    -0.7887 H       
  82 H82            2.5234     3.9040    -0.5504 H       
  83 H83            6.2204     9.0513    -0.8848 H       
  84 H84            4.9947     8.9948    -2.8130 H       
  85 H85            4.6256     7.2705    -2.5275 H       
  86 H86            2.6993     9.2615    -2.4890 H       
  87 H87            2.5609     7.7474    -1.5414 H       
  88 H88            3.5922    10.4839    -0.6119 H       
  89 H89            2.3881     9.4177     0.1845 H       
  90 H90            4.0677     7.8176     0.8306 H       
  91 H91            4.9433     9.3661     1.0434 H       
  92 H92           10.3090     6.4979    -0.7428 H       
  93 H93           11.5061     8.8203    -0.5578 H       
  94 H94            7.3868     9.5779     0.0993 H       
@<TRIPOS>BOND
   1    1    2 ar
   2    1    7 1
   3    1    6 ar
   4    2    3 ar
   5    2    9 1
   6    3    4 ar
   7    3   55 1
   8    4    5 ar
   9    4   56 1
  10    5    6 ar
  11    5   16 1
  12    6   57 1
  13    7    8 2
  14    8    9 1
  15    8   34 1
  16    9   10 1
  17   10   11 1
  18   10   15 1
  19   10   58 1
  20   11   12 1
  21   11   59 1
  22   11   60 1
  23   12   13 1
  24   12   61 1
  25   12   62 1
  26   13   14 1
  27   13   63 1
  28   13   64 1
  29   14   15 1
  30   14   65 1
  31   14   66 1
  32   15   67 1
  33   15   68 1
  34   16   17 2
  35   16   18 am
  36   18   19 1
  37   18   69 1
  38   19   20 1
  39   19   21 1
  40   19   70 1
  41   20   24 1
  42   20   71 1
  43   20   72 1
  44   21   22 2
  45   21   23 1
  46   23   73 1
  47   24   25 2
  48   24   28 1
  49   25   26 1
  50   25   74 1
  51   26   27 1
  52   26   75 1
  53   27   28 ar
  54   27   29 ar
  55   28   32 ar
  56   29   30 ar
  57   29   76 1
  58   30   31 ar
  59   30   77 1
  60   31   32 ar
  61   31   33 1
  62   32   78 1
  63   33   79 1
  64   34   35 2
  65   34   36 1
  66   36   37 ar
  67   36   41 ar
  68   37   38 ar
  69   37   80 1
  70   38   39 ar
  71   38   42 1
  72   39   40 ar
  73   39   44 1
  74   40   41 ar
  75   40   81 1
  76   41   82 1
  77   42   43 2
  78   43   44 1
  79   43   50 1
  80   44   45 1
  81   45   46 1
  82   45   49 1
  83   45   83 1
  84   46   47 1
  85   46   84 1
  86   46   85 1
  87   47   48 1
  88   47   86 1
  89   47   87 1
  90   48   49 1
  91   48   88 1
  92   48   89 1
  93   49   90 1
  94   49   91 1
  95   50   51 1
  96   50   54 2
  97   51   52 2
  98   51   92 1
  99   52   53 1
 100   52   93 1
 101   53   54 1
 102   54   94 1

#	End of record

