#	Name: ASD04590163
#	Creating user name:	WinNT
#	Creation time:	15. 06. 2019 20:50

#	Modifying user name:	WinNT
#	Modification time:	15. 06. 2019 20:50

#	Program:	/corina/corina34_cracker 3.40 0067  02.08.2006

@<TRIPOS>MOLECULE
ASD04590163
  61   63    0    0    0
SMALL
NO_CHARGES


@<TRIPOS>ATOM
   1 N1            -0.0153     1.2802     0.0091 N.pl3   
   2 N2             0.0021    -0.0041     0.0020 N.2     
   3 C3             1.2455    -0.4440    -0.0122 C.2     
   4 C4             2.0903     0.6961    -0.0142 C.2     
   5 C5             1.2523     1.7667    -0.0004 C.2     
   6 C6             1.6764    -1.8547    -0.0235 C.2     
   7 N7             0.7571    -2.8402    -0.0200 N.am    
   8 O8             2.8611    -2.1284    -0.0359 O.2     
   9 N9             3.4929     0.7146    -0.0268 N.am    
  10 C10            4.1514     1.8906    -0.0268 C.2     
  11 C11            1.1851    -4.2412    -0.0312 C.3     
  12 O12            3.5295     2.9356    -0.0160 O.2     
  13 C13            0.0890    -5.1141     0.5843 C.3     
  14 C14            0.5541    -6.5736     0.6025 C.3     
  15 N15            0.9419    -6.9634    -0.7599 N.am    
  16 C16            1.9231    -6.1388    -1.4784 C.3     
  17 C17            1.4426    -4.6842    -1.4733 C.3     
  18 C18            5.6270     1.9101    -0.0401 C.ar    
  19 C19            6.3115     3.1284    -0.0402 C.ar    
  20 C20            7.6884     3.1423    -0.0521 C.ar    
  21 C21            8.3973     1.9468    -0.0640 C.ar    
  22 C22            7.7202     0.7329    -0.0640 C.ar    
  23 C23            6.3435     0.7104    -0.0468 C.ar    
  24 C24            0.4082    -8.0568    -1.3395 C.2     
  25 C25           -1.3603    -9.4050    -3.2012 C.3     
  26 C26            0.1573    -9.5919    -3.1497 C.3     
  27 O27            0.7727    -8.4024    -2.5887 O.3     
  28 C28            0.4929   -10.8009    -2.2743 C.3     
  29 C29            0.6910    -9.8230    -4.5649 C.3     
  30 O30           -0.4020    -8.7308    -0.7347 O.2     
  31 O31            9.7543     1.9647    -0.0762 O.3     
  32 C32           10.4198     0.7002    -0.0881 C.3     
  33 F33           10.0636    -0.0249     1.0542 F       
  34 F34           10.0430    -0.0144    -1.2303 F       
  35 H35           -0.8184     1.8242     0.0160 H       
  36 H36            1.5405     2.8076     0.0019 H       
  37 H37           -0.1880    -2.6218    -0.0102 H       
  38 H38            3.9890    -0.1189    -0.0354 H       
  39 H39            2.1014    -4.3456     0.5497 H       
  40 H40           -0.1103    -4.7830     1.6035 H       
  41 H41           -0.8204    -5.0295    -0.0106 H       
  42 H42            1.4101    -6.6760     1.2695 H       
  43 H43           -0.2592    -7.2120     0.9477 H       
  44 H44            2.8907    -6.2057    -0.9811 H       
  45 H45            2.0131    -6.4903    -2.5062 H       
  46 H46            0.5205    -4.6036    -2.0488 H       
  47 H47            2.2068    -4.0471    -1.9186 H       
  48 H48            5.7615     4.0577    -0.0313 H       
  49 H49            8.2183     4.0834    -0.0526 H       
  50 H50            8.2746    -0.1939    -0.0736 H       
  51 H51            5.8181    -0.2332    -0.0464 H       
  52 H52           -1.5994    -8.5436    -3.8249 H       
  53 H53           -1.8223   -10.2979    -3.6224 H       
  54 H54           -1.7405    -9.2403    -2.1930 H       
  55 H55            0.0310   -11.6939    -2.6954 H       
  56 H56            1.5741   -10.9341    -2.2376 H       
  57 H57            0.1127   -10.6362    -1.2661 H       
  58 H58            0.4519    -8.9617    -5.1886 H       
  59 H59            1.7722    -9.9562    -4.5282 H       
  60 H60            0.2291   -10.7160    -4.9861 H       
  61 H61           11.4983     0.8572    -0.0971 H       
@<TRIPOS>BOND
   1    1    2 1
   2    1    5 1
   3    1   35 1
   4    2    3 2
   5    3    4 1
   6    3    6 1
   7    4    5 2
   8    4    9 1
   9    5   36 1
  10    6    7 am
  11    6    8 2
  12    7   11 1
  13    7   37 1
  14    9   10 am
  15    9   38 1
  16   10   12 2
  17   10   18 1
  18   11   13 1
  19   11   17 1
  20   11   39 1
  21   13   14 1
  22   13   40 1
  23   13   41 1
  24   14   15 1
  25   14   42 1
  26   14   43 1
  27   15   16 1
  28   15   24 am
  29   16   17 1
  30   16   44 1
  31   16   45 1
  32   17   46 1
  33   17   47 1
  34   18   19 ar
  35   18   23 ar
  36   19   20 ar
  37   19   48 1
  38   20   21 ar
  39   20   49 1
  40   21   22 ar
  41   21   31 1
  42   22   23 ar
  43   22   50 1
  44   23   51 1
  45   24   30 2
  46   24   27 1
  47   25   26 1
  48   25   52 1
  49   25   53 1
  50   25   54 1
  51   26   27 1
  52   26   28 1
  53   26   29 1
  54   28   55 1
  55   28   56 1
  56   28   57 1
  57   29   58 1
  58   29   59 1
  59   29   60 1
  60   31   32 1
  61   32   33 1
  62   32   34 1
  63   32   61 1

#	End of record

