#	Name: ASD01915495
#	Creating user name:	WinNT
#	Creation time:	15. 06. 2019 20:05

#	Modifying user name:	WinNT
#	Modification time:	15. 06. 2019 20:05

#	Program:	/corina/corina34_cracker 3.40 0067  02.08.2006

@<TRIPOS>MOLECULE
ASD01915495
  46   49    0    0    0
SMALL
NO_CHARGES


@<TRIPOS>ATOM
   1 C1            -0.0361     1.2875    -0.1155 C.ar    
   2 C2            -0.0033    -0.0969    -0.1234 C.ar    
   3 C3             1.2112    -0.7603    -0.1224 C.ar    
   4 C4             2.3943    -0.0371    -0.1135 C.ar    
   5 C5             2.3575     1.3500    -0.1056 C.ar    
   6 C6             1.1433     2.0086    -0.1066 C.ar    
   7 O7             3.5884    -0.6861    -0.1120 O.3     
   8 C8             4.7663     0.1228    -0.1026 C.3     
   9 C9             5.9847    -0.7641    -0.1023 C.ar    
  10 C10            6.5585    -1.1717    -1.2916 C.ar    
  11 N11            7.6186    -1.9502    -1.2930 N.ar    
  12 C12            8.1866    -2.3814    -0.1735 C.ar    
  13 C13            7.6736    -2.0033     1.0467 C.ar    
  14 C14            6.5531    -1.1809     1.0898 C.ar    
  15 C15            9.3781    -3.2941    -0.3060 C.3     
  16 C16           10.2021    -3.3026     0.9804 C.3     
  17 N17            9.2779    -3.4869     2.1115 N.am    
  18 C18            8.2905    -2.4291     2.3537 C.3     
  19 C19            9.3363    -4.5835     2.8927 C.2     
  20 C20            8.4854    -4.6789     4.0966 C.ar    
  21 O21           10.0891    -5.4942     2.6067 O.2     
  22 C22            7.9593    -5.9122     4.4869 C.ar    
  23 C23            7.1665    -5.9957     5.6113 C.ar    
  24 C24            6.8909    -4.8579     6.3544 C.ar    
  25 C25            7.4103    -3.6308     5.9710 C.ar    
  26 C26            8.2091    -3.5371     4.8516 C.ar    
  27 F27            6.1132    -4.9453     7.4556 F       
  28 F28           -1.1570    -0.7998    -0.1317 F       
  29 H29           -0.9843     1.8045    -0.1209 H       
  30 H30            1.2374    -1.8400    -0.1282 H       
  31 H31            3.2782     1.9147    -0.0982 H       
  32 H32            1.1154     3.0883    -0.1008 H       
  33 H33            4.7788     0.7569    -0.9891 H       
  34 H34            4.7712     0.7471     0.7908 H       
  35 H35            6.1319    -0.8479    -2.2295 H       
  36 H36            6.1290    -0.8789     2.0360 H       
  37 H37            9.0328    -4.3062    -0.5173 H       
  38 H38           10.0034    -2.9502    -1.1300 H       
  39 H39           10.9193    -4.1229     0.9533 H       
  40 H40           10.7295    -2.3546     1.0864 H       
  41 H41            8.7812    -1.5742     2.8190 H       
  42 H42            7.5115    -2.8050     3.0171 H       
  43 H43            8.1731    -6.7990     3.9086 H       
  44 H44            6.7588    -6.9489     5.9139 H       
  45 H45            7.1923    -2.7477     6.5532 H       
  46 H46            8.6135    -2.5809     4.5541 H       
@<TRIPOS>BOND
   1    1    2 ar
   2    1    6 ar
   3    1   29 1
   4    2    3 ar
   5    2   28 1
   6    3    4 ar
   7    3   30 1
   8    4    5 ar
   9    4    7 1
  10    5    6 ar
  11    5   31 1
  12    6   32 1
  13    7    8 1
  14    8    9 1
  15    8   33 1
  16    8   34 1
  17    9   10 ar
  18    9   14 ar
  19   10   11 ar
  20   10   35 1
  21   11   12 ar
  22   12   13 ar
  23   12   15 1
  24   13   14 ar
  25   13   18 1
  26   14   36 1
  27   15   16 1
  28   15   37 1
  29   15   38 1
  30   16   17 1
  31   16   39 1
  32   16   40 1
  33   17   18 1
  34   17   19 am
  35   18   41 1
  36   18   42 1
  37   19   20 1
  38   19   21 2
  39   20   22 ar
  40   20   26 ar
  41   22   23 ar
  42   22   43 1
  43   23   24 ar
  44   23   44 1
  45   24   25 ar
  46   24   27 1
  47   25   26 ar
  48   25   45 1
  49   26   46 1

#	End of record

