#	Name: ASD01914920
#	Creating user name:	WinNT
#	Creation time:	15. 06. 2019 20:04

#	Modifying user name:	WinNT
#	Modification time:	15. 06. 2019 20:04

#	Program:	/corina/corina34_cracker 3.40 0067  02.08.2006

@<TRIPOS>MOLECULE
ASD01914920
  57   61    0    0    0
SMALL
NO_CHARGES


@<TRIPOS>ATOM
   1 C1             0.0135     1.9592     0.7078 C.2     
   2 N2            -0.0755     0.6681     0.9503 N.2     
   3 C3             1.2908     2.2231     0.1852 C.2     
   4 C4             1.9676     1.0404     0.1223 C.2     
   5 N5             1.1373     0.0659     0.5921 N.pl3   
   6 C6            -1.0548     2.9630     0.9407 C.ar    
   7 C7            -2.2848     2.5669     1.4613 C.ar    
   8 C8            -3.2748     3.5045     1.6759 C.ar    
   9 C9            -3.0475     4.8352     1.3746 C.ar    
  10 C10           -1.8281     5.2339     0.8576 C.ar    
  11 C11           -0.8291     4.3056     0.6449 C.ar    
  12 C12            3.3513     0.8495    -0.3667 C.ar    
  13 C13            3.9182     1.7747    -1.2434 C.ar    
  14 C14            5.2087     1.5911    -1.6958 C.ar    
  15 C15            5.9402     0.4923    -1.2817 C.ar    
  16 C16            5.3835    -0.4290    -0.4128 C.ar    
  17 C17            4.0961    -0.2533     0.0516 C.ar    
  18 C18            1.4575    -1.3593     0.7030 C.3     
  19 C19            1.9653    -1.6536     2.0910 C.2     
  20 N20            2.3239    -2.9090     2.4253 N.am    
  21 O21            2.0513    -0.7606     2.9072 O.2     
  22 C22            2.8239    -3.2299     3.7728 C.3     
  23 C23            1.8644    -4.2361     4.4111 C.3     
  24 N24            1.5475    -5.3102     3.4799 N.am    
  25 C25            1.6627    -5.2214     2.1540 C.2     
  26 C26            2.2260    -4.0151     1.4613 C.3     
  27 C27            1.0892    -6.5208     4.0139 C.ar    
  28 C28           -0.1578    -6.5850     4.6212 C.ar    
  29 C29            1.8788    -7.6600     3.9317 C.ar    
  30 C30            1.4249    -8.8532     4.4587 C.ar    
  31 C31            0.1830    -8.9140     5.0682 C.ar    
  32 C32           -0.6081    -7.7802     5.1469 C.ar    
  33 O33            1.2924    -6.1572     1.4771 O.2     
  34 F34           -0.2595   -10.0823     5.5826 F       
  35 H35            1.6689     3.1895    -0.1138 H       
  36 H36           -2.4636     1.5280     1.6962 H       
  37 H37           -4.2287     3.1985     2.0794 H       
  38 H38           -3.8250     5.5655     1.5434 H       
  39 H39           -1.6558     6.2742     0.6241 H       
  40 H40            0.1228     4.6180     0.2414 H       
  41 H41            3.3480     2.6327    -1.5676 H       
  42 H42            5.6486     2.3065    -2.3748 H       
  43 H43            6.9499     0.3530    -1.6386 H       
  44 H44            5.9593    -1.2852    -0.0937 H       
  45 H45            3.6626    -0.9731     0.7302 H       
  46 H46            0.5610    -1.9491     0.5115 H       
  47 H47            2.2248    -1.6172    -0.0269 H       
  48 H48            3.8202    -3.6663     3.7011 H       
  49 H49            2.8615    -2.3233     4.3768 H       
  50 H50            2.3285    -4.6590     5.3021 H       
  51 H51            0.9447    -3.7244     4.6950 H       
  52 H52            1.5718    -3.7283     0.6379 H       
  53 H53            3.2197    -4.2455     1.0772 H       
  54 H54           -0.7750    -5.7009     4.6828 H       
  55 H55            2.8472    -7.6131     3.4558 H       
  56 H56            2.0387    -9.7395     4.3950 H       
  57 H57           -1.5762    -7.8296     5.6229 H       
@<TRIPOS>BOND
   1    1    2 2
   2    1    3 1
   3    1    6 1
   4    2    5 1
   5    3    4 2
   6    3   35 1
   7    4    5 1
   8    4   12 1
   9    5   18 1
  10    6    7 ar
  11    6   11 ar
  12    7    8 ar
  13    7   36 1
  14    8    9 ar
  15    8   37 1
  16    9   10 ar
  17    9   38 1
  18   10   11 ar
  19   10   39 1
  20   11   40 1
  21   12   13 ar
  22   12   17 ar
  23   13   14 ar
  24   13   41 1
  25   14   15 ar
  26   14   42 1
  27   15   16 ar
  28   15   43 1
  29   16   17 ar
  30   16   44 1
  31   17   45 1
  32   18   19 1
  33   18   46 1
  34   18   47 1
  35   19   20 am
  36   19   21 2
  37   20   22 1
  38   20   26 1
  39   22   23 1
  40   22   48 1
  41   22   49 1
  42   23   24 1
  43   23   50 1
  44   23   51 1
  45   24   25 am
  46   24   27 1
  47   25   26 1
  48   25   33 2
  49   26   52 1
  50   26   53 1
  51   27   28 ar
  52   27   29 ar
  53   28   32 ar
  54   28   54 1
  55   29   30 ar
  56   29   55 1
  57   30   31 ar
  58   30   56 1
  59   31   32 ar
  60   31   34 1
  61   32   57 1

#	End of record

