#	Name: ASD04590236
#	Creating user name:	WinNT
#	Creation time:	15. 06. 2019 20:50

#	Modifying user name:	WinNT
#	Modification time:	15. 06. 2019 20:50

#	Program:	/corina/corina34_cracker 3.40 0067  02.08.2006

@<TRIPOS>MOLECULE
ASD04590236
  55   57    0    0    0
SMALL
NO_CHARGES


@<TRIPOS>ATOM
   1 N1            -0.0153     1.2802     0.0091 N.pl3   
   2 N2             0.0021    -0.0041     0.0020 N.2     
   3 C3             1.2455    -0.4440    -0.0122 C.2     
   4 C4             2.0903     0.6961    -0.0142 C.2     
   5 C5             1.2523     1.7667    -0.0004 C.2     
   6 C6             1.6764    -1.8547    -0.0232 C.2     
   7 N7             0.7570    -2.8402    -0.0194 N.am    
   8 N8             3.4928     0.7146    -0.0270 N.am    
   9 O9             2.8611    -2.1285    -0.0356 O.2     
  10 C10            4.1513     1.8906    -0.0271 C.2     
  11 C11            5.6294     1.9102    -0.0407 C.ar    
  12 O12            3.5296     2.9353    -0.0159 O.2     
  13 C13            1.1850    -4.2413    -0.0303 C.3     
  14 C14            1.9146    -6.1625     1.3905 C.3     
  15 C15            1.4676    -4.6993     1.4019 C.3     
  16 C16            6.3137     3.1264    -0.0407 C.ar    
  17 C17            7.6956     3.1388    -0.0530 C.ar    
  18 C18            8.4015     1.9468    -0.0656 C.ar    
  19 C19            7.7273     0.7366    -0.0661 C.ar    
  20 C20            6.3456     0.7124    -0.0476 C.ar    
  21 C21            0.0780    -5.1080    -0.6339 C.3     
  22 C22            0.5250    -6.5712    -0.6452 C.3     
  23 C23            0.8076    -7.0293     0.7869 C.3     
  24 C24            1.2546    -8.4925     0.7756 C.3     
  25 C25            2.5258    -8.6309    -0.0644 C.3     
  26 C26            1.5372    -8.9505     2.2078 C.3     
  27 C27            0.1476    -9.3592     0.1720 C.3     
  28 F28            8.3594     4.3155    -0.0531 F       
  29 F29            8.4219    -0.4221    -0.0789 F       
  30 H30           -0.8184     1.8242     0.0160 H       
  31 H31            1.5405     2.8076     0.0024 H       
  32 H32           -0.1880    -2.6218    -0.0095 H       
  33 H33            3.9888    -0.1189    -0.0359 H       
  34 H34            2.0907    -4.3399    -0.6287 H       
  35 H35            2.8203    -6.2612     0.7921 H       
  36 H36            2.1159    -6.4889     2.4108 H       
  37 H37            2.2563    -4.0819     1.8319 H       
  38 H38            0.5620    -4.6007     2.0003 H       
  39 H39            5.7645     4.0563    -0.0316 H       
  40 H40            9.4813     1.9611    -0.0755 H       
  41 H41            5.8210    -0.2316    -0.0476 H       
  42 H42           -0.8277    -5.0094    -0.0355 H       
  43 H43           -0.1233    -4.7816    -1.6542 H       
  44 H44           -0.2637    -7.1887    -1.0752 H       
  45 H45            1.4307    -6.6698    -1.2437 H       
  46 H46           -0.0981    -6.9306     1.3854 H       
  47 H47            3.3145    -8.0134     0.3656 H       
  48 H48            2.8443    -9.6733    -0.0725 H       
  49 H49            2.3245    -8.3046    -1.0847 H       
  50 H50            0.6315    -8.8519     2.8062 H       
  51 H51            1.8556    -9.9930     2.1997 H       
  52 H52            2.3258    -8.3331     2.6378 H       
  53 H53           -0.0538    -9.0329    -0.8483 H       
  54 H54            0.4660   -10.4016     0.1639 H       
  55 H55           -0.7581    -9.2606     0.7704 H       
@<TRIPOS>BOND
   1    1    2 1
   2    1    5 1
   3    1   30 1
   4    2    3 2
   5    3    4 1
   6    3    6 1
   7    4    5 2
   8    4    8 1
   9    5   31 1
  10    6    7 am
  11    6    9 2
  12    7   13 1
  13    7   32 1
  14    8   10 am
  15    8   33 1
  16   10   12 2
  17   10   11 1
  18   11   16 ar
  19   11   20 ar
  20   13   21 1
  21   13   15 1
  22   13   34 1
  23   14   15 1
  24   14   23 1
  25   14   35 1
  26   14   36 1
  27   15   37 1
  28   15   38 1
  29   16   17 ar
  30   16   39 1
  31   17   18 ar
  32   17   28 1
  33   18   19 ar
  34   18   40 1
  35   19   20 ar
  36   19   29 1
  37   20   41 1
  38   21   22 1
  39   21   42 1
  40   21   43 1
  41   22   23 1
  42   22   44 1
  43   22   45 1
  44   23   24 1
  45   23   46 1
  46   24   25 1
  47   24   26 1
  48   24   27 1
  49   25   47 1
  50   25   48 1
  51   25   49 1
  52   26   50 1
  53   26   51 1
  54   26   52 1
  55   27   53 1
  56   27   54 1
  57   27   55 1

#	End of record

