#	Name: ASD01881686
#	Creating user name:	WinNT
#	Creation time:	15. 06. 2019 19:43

#	Modifying user name:	WinNT
#	Modification time:	15. 06. 2019 19:43

#	Program:	/corina/corina34_cracker 3.40 0067  02.08.2006

@<TRIPOS>MOLECULE
ASD01881686
  54   57    0    0    0
SMALL
NO_CHARGES


@<TRIPOS>ATOM
   1 C1            -0.0550     1.5254    -0.2061 C.3     
   2 C2            -0.0505    -0.0033    -0.2680 C.3     
   3 C3            -1.4266    -0.5342     0.1385 C.3     
   4 O4             0.2484    -0.4252    -1.6001 O.3     
   5 N5            -1.4067    -2.0031     0.1305 N.3     
   6 C6            -0.7029    -2.5263     1.3083 C.3     
   7 C7            -0.5745    -4.0470     1.1937 C.3     
   8 C8            -1.9714    -4.6661     1.0938 C.3     
   9 C9            -2.7009    -4.0687    -0.1126 C.3     
  10 C10           -2.7676    -2.5474     0.0399 C.3     
  11 O11           -1.8560    -6.0810     0.9295 O.3     
  12 C12           -2.9483    -6.8209     1.4787 C.3     
  13 O13            1.2602     2.0168    -0.4722 O.3     
  14 N14            2.2127     7.4110    -0.4649 N.pl3   
  15 N15            3.5805     7.3268    -0.7646 N.2     
  16 N16            3.9168     6.0911    -0.8863 N.2     
  17 C17            2.8490     5.2930    -0.6864 C.ar    
  18 C18            1.7439     6.1180    -0.4144 C.ar    
  19 C19            2.6767     3.9021    -0.7048 C.ar    
  20 C20            1.4303     3.3660    -0.4554 C.ar    
  21 C21            0.3448     4.1963    -0.1871 C.ar    
  22 C22            0.4974     5.5541    -0.1672 C.ar    
  23 C23            1.4374     8.6341    -0.2430 C.3     
  24 C24            0.8622     9.1218    -1.5743 C.3     
  25 C25           -0.0798    10.3269    -1.5376 C.3     
  26 C26            1.3373    10.4802    -2.0938 C.3     
  27 Br27           4.1447     2.7669    -1.0684 Br      
  28 H28           -0.7470     1.9172    -0.9517 H       
  29 H29           -0.3695     1.8480     0.7864 H       
  30 H30            0.7052    -0.3923     0.4145 H       
  31 H31           -1.6716    -0.1797     1.1397 H       
  32 H32           -2.1768    -0.1772    -0.5671 H       
  33 H33           -0.3842    -0.1148    -2.2623 H       
  34 H34            0.2905    -2.0813     1.3652 H       
  35 H35           -1.2648    -2.2761     2.2081 H       
  36 H36           -0.0008    -4.2976     0.3014 H       
  37 H37           -0.0659    -4.4368     2.0754 H       
  38 H38           -2.5321    -4.4486     2.0029 H       
  39 H39           -2.1606    -4.3196    -1.0254 H       
  40 H40           -3.7114    -4.4739    -0.1641 H       
  41 H41           -3.3199    -2.2970     0.9456 H       
  42 H42           -3.2738    -2.1176    -0.8245 H       
  43 H43           -3.0175    -6.6260     2.5489 H       
  44 H44           -3.8749    -6.5151     0.9929 H       
  45 H45           -2.7854    -7.8858     1.3131 H       
  46 H46           -0.6257     3.7636     0.0061 H       
  47 H47           -0.3506     6.1895     0.0416 H       
  48 H48            0.6226     8.4269     0.4507 H       
  49 H49            2.0852     9.4037     0.1766 H       
  50 H50            0.6569     8.3447    -2.3106 H       
  51 H51           -0.9045    10.3428    -2.2501 H       
  52 H52           -0.2897    10.7722    -0.5652 H       
  53 H53            2.0597    11.0264    -1.4873 H       
  54 H54            1.4448    10.5970    -3.1722 H       
@<TRIPOS>BOND
   1    1    2 1
   2    1   13 1
   3    1   28 1
   4    1   29 1
   5    2    3 1
   6    2    4 1
   7    2   30 1
   8    3    5 1
   9    3   31 1
  10    3   32 1
  11    4   33 1
  12    5    6 1
  13    5   10 1
  14    6    7 1
  15    6   34 1
  16    6   35 1
  17    7    8 1
  18    7   36 1
  19    7   37 1
  20    8    9 1
  21    8   11 1
  22    8   38 1
  23    9   10 1
  24    9   39 1
  25    9   40 1
  26   10   41 1
  27   10   42 1
  28   11   12 1
  29   12   43 1
  30   12   44 1
  31   12   45 1
  32   13   20 1
  33   14   15 1
  34   14   18 1
  35   14   23 1
  36   15   16 2
  37   16   17 1
  38   17   18 ar
  39   17   19 ar
  40   18   22 ar
  41   19   20 ar
  42   19   27 1
  43   20   21 ar
  44   21   22 ar
  45   21   46 1
  46   22   47 1
  47   23   24 1
  48   23   48 1
  49   23   49 1
  50   24   25 1
  51   24   26 1
  52   24   50 1
  53   25   26 1
  54   25   51 1
  55   25   52 1
  56   26   53 1
  57   26   54 1

#	End of record

