#	Name: ASD04910210
#	Creating user name:	WinNT
#	Creation time:	15. 06. 2019 20:55

#	Modifying user name:	WinNT
#	Modification time:	15. 06. 2019 20:55

#	Program:	/corina/corina34_cracker 3.40 0067  02.08.2006

@<TRIPOS>MOLECULE
ASD04910210
  21   22    0    0    0
SMALL
NO_CHARGES


@<TRIPOS>ATOM
   1 C1            -0.0159     1.3187     0.0093 C.ar    
   2 N2             0.0021    -0.0041     0.0020 N.ar    
   3 C3             1.1469    -0.6661    -0.0124 C.ar    
   4 C4             2.3408     0.0472    -0.0200 C.ar    
   5 C5             2.2814     1.4367    -0.0120 C.ar    
   6 N6             1.0995     2.0300     0.0025 N.ar    
   7 O7             3.5374    -0.5984    -0.0344 O.3     
   8 N8            -1.2445     1.9815     0.0186 N.pl3   
   9 N9            -2.5085     1.3774     0.0218 N.2     
  10 C10           -3.4138     2.3214     0.0318 C.2     
  11 C11           -2.7605     3.5593     0.0354 C.2     
  12 C12           -1.4279     3.3279     0.0323 C.2     
  13 C13           -3.4250     4.9119     0.0464 C.3     
  14 F14           -4.8144     4.7488     0.0532 F       
  15 F15           -3.0323     5.6150     1.1904 F       
  16 F16           -3.0450     5.6274    -1.0941 F       
  17 H17            1.1546    -1.7461    -0.0180 H       
  18 H18            3.1882     2.0233    -0.0171 H       
  19 H19            3.8753    -0.7807    -0.9219 H       
  20 H20           -4.4833     2.1712     0.0359 H       
  21 H21           -0.6503     4.0775     0.0374 H       
@<TRIPOS>BOND
   1    1    2 ar
   2    1    6 ar
   3    1    8 1
   4    2    3 ar
   5    3    4 ar
   6    3   17 1
   7    4    5 ar
   8    4    7 1
   9    5    6 ar
  10    5   18 1
  11    7   19 1
  12    8    9 1
  13    8   12 1
  14    9   10 2
  15   10   11 1
  16   10   20 1
  17   11   12 2
  18   11   13 1
  19   12   21 1
  20   13   14 1
  21   13   15 1
  22   13   16 1

#	End of record

