#	Name: ASD08170193
#	Creating user name:	WinNT
#	Creation time:	15. 06. 2019 21:17

#	Modifying user name:	WinNT
#	Modification time:	15. 06. 2019 21:17

#	Program:	/corina/corina34_cracker 3.40 0067  02.08.2006

@<TRIPOS>MOLECULE
ASD08170193
  65   70    0    0    0
SMALL
NO_CHARGES


@<TRIPOS>ATOM
   1 N1            -0.0150     1.2583     0.0090 N.2     
   2 N2             0.0021    -0.0041     0.0020 N.2     
   3 C3             1.1271     1.8769     0.0014 C.2     
   4 S4             2.3826     0.7116    -0.0169 S.3     
   5 C5             1.1681    -0.5677    -0.0121 C.2     
   6 C6             1.4387    -2.0502    -0.0227 C.3     
   7 C7             1.5165    -2.5442    -1.4687 C.3     
   8 S8             1.8422    -4.3286    -1.4814 S.3     
   9 C9             1.8986    -4.7206    -3.2516 C.3     
  10 C10            2.1699    -6.2152    -3.4347 C.3     
  11 C11            2.2167    -6.5408    -4.9053 C.2     
  12 N12            3.2694    -6.5184    -5.6596 N.2     
  13 S13            0.8491    -7.0282    -5.9071 S.3     
  14 C14            1.9000    -7.1354    -7.2557 C.2     
  15 N15            3.1017    -6.8250    -6.8728 N.2     
  16 N16            1.5289    -7.4992    -8.5457 N.am    
  17 C17            2.4537    -7.5464    -9.5250 C.2     
  18 O18            3.6096    -7.2716    -9.2812 O.2     
  19 C19            2.0516    -7.9407   -10.9228 C.3     
  20 N20            1.3017     3.2566     0.0067 N.am    
  21 C21            0.2284     4.0717     0.0214 C.2     
  22 O22           -0.8897     3.6019     0.0299 O.2     
  23 C23            0.4176     5.5667     0.0272 C.3     
  24 C24            1.0755     6.0103    -1.2865 C.3     
  25 C25            1.0973    -6.8881   -11.5032 C.3     
  26 O26            1.2282     7.4335    -1.2530 O.3     
  27 C27            0.1508     8.1547    -0.8390 C.ar    
  28 C28           -0.8884     7.5463    -0.1452 C.ar    
  29 O29           -0.8551     6.2142     0.1318 O.3     
  30 C30            0.0939     9.5129    -1.1148 C.ar    
  31 C31           -0.9927    10.2589    -0.6991 C.ar    
  32 C32           -2.0252     9.6541    -0.0066 C.ar    
  33 C33           -1.9753     8.3011     0.2704 C.ar    
  34 O34            3.2118    -8.0034   -11.7595 O.3     
  35 C35            2.9953    -8.0544   -13.1023 C.ar    
  36 C36            1.7652    -7.6930   -13.6387 C.ar    
  37 O37            0.7465    -7.2858   -12.8331 O.3     
  38 C38            4.0177    -8.4722   -13.9412 C.ar    
  39 C39            3.8140    -8.5268   -15.3070 C.ar    
  40 C40            2.5911    -8.1650   -15.8408 C.ar    
  41 C41            1.5679    -7.7485   -15.0105 C.ar    
  42 H42            2.3843    -2.2506     0.4811 H       
  43 H43            0.6334    -2.5702     0.4961 H       
  44 H44            0.5709    -2.3438    -1.9724 H       
  45 H45            2.3218    -2.0242    -1.9874 H       
  46 H46            0.9434    -4.4658    -3.7108 H       
  47 H47            2.6943    -4.1461    -3.7258 H       
  48 H48            3.1250    -6.4700    -2.9755 H       
  49 H49            1.3741    -6.7896    -2.9605 H       
  50 H50            0.6045    -7.7190    -8.7407 H       
  51 H51            1.5587    -8.9127   -10.9031 H       
  52 H52            2.1959     3.6323    -0.0001 H       
  53 H53            1.0474     5.8543     0.8691 H       
  54 H54            2.0528     5.5379    -1.3861 H       
  55 H55            0.4428     5.7282    -2.1281 H       
  56 H56            0.1991    -6.8276   -10.8886 H       
  57 H57            1.5923    -5.9173   -11.5283 H       
  58 H58            0.8994     9.9878    -1.6551 H       
  59 H59           -1.0351    11.3161    -0.9154 H       
  60 H60           -2.8722    10.2400     0.3183 H       
  61 H61           -2.7833     7.8311     0.8113 H       
  62 H62            4.9741    -8.7549   -13.5267 H       
  63 H63            4.6115    -8.8522   -15.9584 H       
  64 H64            2.4352    -8.2076   -16.9087 H       
  65 H65            0.6136    -7.4663   -15.4301 H       
@<TRIPOS>BOND
   1    1    2 1
   2    1    3 2
   3    2    5 2
   4    3    4 1
   5    3   20 1
   6    4    5 1
   7    5    6 1
   8    6    7 1
   9    6   42 1
  10    6   43 1
  11    7    8 1
  12    7   44 1
  13    7   45 1
  14    8    9 1
  15    9   10 1
  16    9   46 1
  17    9   47 1
  18   10   11 1
  19   10   48 1
  20   10   49 1
  21   11   12 2
  22   11   13 1
  23   12   15 1
  24   13   14 1
  25   14   15 2
  26   14   16 1
  27   16   17 am
  28   16   50 1
  29   17   18 2
  30   17   19 1
  31   19   25 1
  32   19   34 1
  33   19   51 1
  34   20   21 am
  35   20   52 1
  36   21   22 2
  37   21   23 1
  38   23   24 1
  39   23   29 1
  40   23   53 1
  41   24   26 1
  42   24   54 1
  43   24   55 1
  44   25   37 1
  45   25   56 1
  46   25   57 1
  47   26   27 1
  48   27   28 ar
  49   27   30 ar
  50   28   29 1
  51   28   33 ar
  52   30   31 ar
  53   30   58 1
  54   31   32 ar
  55   31   59 1
  56   32   33 ar
  57   32   60 1
  58   33   61 1
  59   34   35 1
  60   35   36 ar
  61   35   38 ar
  62   36   37 1
  63   36   41 ar
  64   38   39 ar
  65   38   62 1
  66   39   40 ar
  67   39   63 1
  68   40   41 ar
  69   40   64 1
  70   41   65 1

#	End of record

