#	Name: ASD03540013
#	Creating user name:	WinNT
#	Creation time:	15. 06. 2019 20:42

#	Modifying user name:	WinNT
#	Modification time:	15. 06. 2019 20:42

#	Program:	/corina/corina34_cracker 3.40 0067  02.08.2006

@<TRIPOS>MOLECULE
ASD03540013
  45   48    0    0    0
SMALL
NO_CHARGES


@<TRIPOS>ATOM
   1 C1            -0.0164     1.3579     0.0095 C.2     
   2 N2             0.0021    -0.0041     0.0020 N.am    
   3 C3             1.2284    -0.6238    -0.0131 C.2     
   4 C4             2.3974     0.1025    -0.0208 C.2     
   5 C5             2.3228     1.5016    -0.0130 C.2     
   6 N6             1.1082     2.0844     0.0027 N.am    
   7 S7             0.9036    -2.3626    -0.0187 S.3     
   8 C8            -1.0724    -0.8452     0.0083 C.2     
   9 C9            -0.8584    -2.1683    -0.0005 C.2     
  10 C10           -1.8701    -3.2326     0.0040 C.2     
  11 O11           -3.0529    -2.9475     0.0165 O.2     
  12 N12           -1.4886    -4.5252    -0.0058 N.am    
  13 C13           -2.4979    -5.5869    -0.0013 C.3     
  14 C14           -1.8144    -6.9299    -0.0142 C.ar    
  15 C15           -1.4896    -7.5516     1.1770 C.ar    
  16 C16           -0.8625    -8.7835     1.1652 C.ar    
  17 C17           -0.5607    -9.3939    -0.0378 C.ar    
  18 C18           -0.8863    -8.7727    -1.2290 C.ar    
  19 C19           -1.5173    -7.5428    -1.2171 C.ar    
  20 O20            3.3377     2.1787    -0.0193 O.2     
  21 O21           -1.0879     1.9319     0.0177 O.2     
  22 C22            1.0159     3.5465     0.0110 C.3     
  23 C23            0.9975     4.0406     1.4345 C.ar    
  24 C24            2.1841     4.3426     2.0764 C.ar    
  25 C25            2.1679     4.7958     3.3820 C.ar    
  26 C26            0.9639     4.9472     4.0466 C.ar    
  27 C27           -0.2233     4.6448     3.4037 C.ar    
  28 C28           -0.2061     4.1970     2.0961 C.ar    
  29 Cl29           0.9428     5.5159     5.6867 Cl      
  30 H30            3.3549    -0.3969    -0.0323 H       
  31 H31           -2.0780    -0.4515     0.0204 H       
  32 H32           -0.5456    -4.7524    -0.0158 H       
  33 H33           -3.1122    -5.5005     0.8949 H       
  34 H34           -3.1291    -5.4920    -0.8850 H       
  35 H35           -1.7254    -7.0747     2.1168 H       
  36 H36           -0.6081    -9.2688     2.0958 H       
  37 H37           -0.0701   -10.3560    -0.0470 H       
  38 H38           -0.6502    -9.2494    -2.1689 H       
  39 H39           -1.7750    -7.0591    -2.1478 H       
  40 H40            1.8764     3.9678    -0.5088 H       
  41 H41            0.1000     3.8556    -0.4928 H       
  42 H42            3.1239     4.2241     1.5577 H       
  43 H43            3.0949     5.0314     3.8835 H       
  44 H44           -1.1634     4.7627     3.9219 H       
  45 H45           -1.1331     3.9651     1.5927 H       
@<TRIPOS>BOND
   1    1    2 am
   2    1    6 am
   3    1   21 2
   4    2    3 1
   5    2    8 1
   6    3    4 2
   7    3    7 1
   8    4    5 1
   9    4   30 1
  10    5    6 am
  11    5   20 2
  12    6   22 1
  13    7    9 1
  14    8    9 2
  15    8   31 1
  16    9   10 1
  17   10   11 2
  18   10   12 am
  19   12   13 1
  20   12   32 1
  21   13   14 1
  22   13   33 1
  23   13   34 1
  24   14   15 ar
  25   14   19 ar
  26   15   16 ar
  27   15   35 1
  28   16   17 ar
  29   16   36 1
  30   17   18 ar
  31   17   37 1
  32   18   19 ar
  33   18   38 1
  34   19   39 1
  35   22   23 1
  36   22   40 1
  37   22   41 1
  38   23   24 ar
  39   23   28 ar
  40   24   25 ar
  41   24   42 1
  42   25   26 ar
  43   25   43 1
  44   26   27 ar
  45   26   29 1
  46   27   28 ar
  47   27   44 1
  48   28   45 1

#	End of record

