#	Name: ASD04590070
#	Creating user name:	WinNT
#	Creation time:	15. 06. 2019 20:50

#	Modifying user name:	WinNT
#	Modification time:	15. 06. 2019 20:50

#	Program:	/corina/corina34_cracker 3.40 0067  02.08.2006

@<TRIPOS>MOLECULE
ASD04590070
  42   45    0    0    0
SMALL
NO_CHARGES


@<TRIPOS>ATOM
   1 N1            -0.1146     1.1905     1.1803 N.ar    
   2 C2            -0.1094    -0.1265     1.1093 C.ar    
   3 C3             1.0720    -0.8652     1.2739 C.ar    
   4 C4             2.2495    -0.2179     1.5135 C.ar    
   5 C5             2.2339     1.1878     1.5875 C.ar    
   6 C6             3.4079     1.9180     1.8306 C.ar    
   7 C7             3.3548     3.2771     1.8951 C.ar    
   8 C8             2.1494     3.9556     1.7229 C.ar    
   9 C9             0.9917     3.2816     1.4862 C.ar    
  10 C10            1.0048     1.8758     1.4119 C.ar    
  11 C11           -1.3811    -0.8426     0.8502 C.2     
  12 O12           -1.3922    -2.0560     0.7820 O.2     
  13 N13           -2.5251    -0.1482     0.6901 N.am    
  14 N14           -5.2312    -2.3742     0.1003 N.pl3   
  15 N15           -5.8535    -1.2516     0.0539 N.2     
  16 C16           -5.0132    -0.2547     0.2537 C.2     
  17 C17           -3.7281    -0.8258     0.4449 C.2     
  18 C18           -3.9106    -2.1693     0.3400 C.2     
  19 C19           -5.3461     1.1819     0.2745 C.2     
  20 N20           -6.6179     1.5818     0.0768 N.am    
  21 O21           -4.4731     2.0056     0.4701 O.2     
  22 C22           -6.9517     2.9361     0.1930 C.ar    
  23 C23           -6.0526     3.9115    -0.2173 C.ar    
  24 C24           -6.3840     5.2473    -0.1017 C.ar    
  25 C25           -7.6119     5.6141     0.4229 C.ar    
  26 C26           -8.5098     4.6430     0.8331 C.ar    
  27 C27           -8.1849     3.3060     0.7135 C.ar    
  28 F28           -7.9341     6.9213     0.5352 F       
  29 H29            1.0496    -1.9432     1.2115 H       
  30 H30            3.1688    -0.7696     1.6432 H       
  31 H31            4.3483     1.4045     1.9661 H       
  32 H32            4.2590     3.8371     2.0825 H       
  33 H33            2.1343     5.0341     1.7788 H       
  34 H34            0.0664     3.8229     1.3552 H       
  35 H35           -2.5162     0.8202     0.7445 H       
  36 H36           -5.6457    -3.2436    -0.0151 H       
  37 H37           -3.1490    -2.9296     0.4306 H       
  38 H38           -7.3018     0.9311    -0.1461 H       
  39 H39           -5.0947     3.6259    -0.6262 H       
  40 H40           -5.6848     6.0063    -0.4204 H       
  41 H41           -9.4668     4.9313     1.2423 H       
  42 H42           -8.8874     2.5488     1.0291 H       
@<TRIPOS>BOND
   1    1    2 ar
   2    1   10 ar
   3    2    3 ar
   4    2   11 1
   5    3    4 ar
   6    3   29 1
   7    4    5 ar
   8    4   30 1
   9    5    6 ar
  10    5   10 ar
  11    6    7 ar
  12    6   31 1
  13    7    8 ar
  14    7   32 1
  15    8    9 ar
  16    8   33 1
  17    9   10 ar
  18    9   34 1
  19   11   12 2
  20   11   13 am
  21   13   17 1
  22   13   35 1
  23   14   15 1
  24   14   18 1
  25   14   36 1
  26   15   16 2
  27   16   17 1
  28   16   19 1
  29   17   18 2
  30   18   37 1
  31   19   20 am
  32   19   21 2
  33   20   22 1
  34   20   38 1
  35   22   23 ar
  36   22   27 ar
  37   23   24 ar
  38   23   39 1
  39   24   25 ar
  40   24   40 1
  41   25   26 ar
  42   25   28 1
  43   26   27 ar
  44   26   41 1
  45   27   42 1

#	End of record

