#	Name: ASD07930091
#	Creating user name:	WinNT
#	Creation time:	15. 06. 2019 21:11

#	Modifying user name:	WinNT
#	Modification time:	15. 06. 2019 21:11

#	Program:	/corina/corina34_cracker 3.40 0067  02.08.2006

@<TRIPOS>MOLECULE
ASD07930091
  22   23    0    0    0
SMALL
NO_CHARGES


@<TRIPOS>ATOM
   1 C1            -0.0169     1.3966     0.0097 C.ar    
   2 C2             0.0021    -0.0041     0.0020 C.ar    
   3 C3             1.2239    -0.6777    -0.0133 C.ar    
   4 C4             2.4036     0.0375    -0.0207 C.ar    
   5 C5             2.3806     1.4213    -0.0126 C.ar    
   6 C6             1.1766     2.0999     0.0021 C.ar    
   7 O7            -1.2004     2.0623     0.0190 O.3     
   8 O8            -2.3052    -0.5911     0.8452 O.3     
   9 N9            -3.1999    -1.3671     0.6026 N.2     
  10 C10           -2.9070    -2.1511    -0.3960 C.2     
  11 C11           -1.6164    -1.7861    -0.8296 C.2     
  12 C12           -1.2646    -0.7639     0.0105 C.2     
  13 C13           -3.7778    -3.2366    -0.9743 C.3     
  14 F14           -5.0278    -3.2156    -0.3465 F       
  15 F15           -3.9416    -3.0214    -2.3469 F       
  16 F16           -3.1723    -4.4806    -0.7664 F       
  17 H17            1.2461    -1.7574    -0.0189 H       
  18 H18            3.3489    -0.4846    -0.0325 H       
  19 H19            3.3085     1.9739    -0.0178 H       
  20 H20            1.1663     3.1799     0.0080 H       
  21 H21           -1.5390     2.2503     0.9050 H       
  22 H22           -1.0395    -2.2133    -1.6365 H       
@<TRIPOS>BOND
   1    1    2 ar
   2    1    6 ar
   3    1    7 1
   4    2    3 ar
   5    2   12 1
   6    3    4 ar
   7    3   17 1
   8    4    5 ar
   9    4   18 1
  10    5    6 ar
  11    5   19 1
  12    6   20 1
  13    7   21 1
  14    8    9 1
  15    8   12 1
  16    9   10 2
  17   10   11 1
  18   10   13 1
  19   11   12 2
  20   11   22 1
  21   13   14 1
  22   13   15 1
  23   13   16 1

#	End of record

