#	Name: ASD01320042
#	Creating user name:	WinNT
#	Creation time:	15. 06. 2019 19:15

#	Modifying user name:	WinNT
#	Modification time:	15. 06. 2019 19:15

#	Program:	/corina/corina34_cracker 3.40 0067  02.08.2006

@<TRIPOS>MOLECULE
ASD01320042
  34   30    0    0    0
SMALL
NO_CHARGES


@<TRIPOS>ATOM
   1 Zn1            0.0000     0.0000     0.0000 Du      
   2 Mn2            5.0000     5.0000     5.0000 Du      
   3 S3            11.5173    10.0000    10.8975 S.3     
   4 S4            15.1823    18.2623    10.9069 S.3     
   5 S5            10.0000    12.5475    10.9257 S.2     
   6 S6            16.6995    15.7148    10.8787 S.2     
   7 N7            14.0476    15.8608    10.9049 N.am    
   8 N8            12.6519    12.4015    10.8996 N.am    
   9 C9            12.6321    13.8664    10.9077 C.3     
  10 C10           14.0675    14.3959    10.8968 C.3     
  11 C11           11.4940    11.7118    10.9070 C.2     
  12 C12           15.2055    16.5505    10.8975 C.2     
  13 H13           14.5776    14.0444    10.0000 H       
  14 H14           14.5946    14.0349    11.7799 H       
  15 H15           12.1049    14.2274    10.0246 H       
  16 H16           12.1219    14.2179    11.8044 H       
  17 H17           13.2011    16.3343    10.9114 H       
  18 H18           13.4984    11.9280    10.8890 H       
  19 S19           23.2168    23.2623    17.7020 S.3     
  20 S20           26.8818    31.5246    17.7114 S.3     
  21 S21           21.6995    25.8098    17.7302 S.2     
  22 S22           28.3991    28.9771    17.6832 S.2     
  23 N23           25.7471    29.1231    17.7093 N.am    
  24 N24           24.3515    25.6638    17.7040 N.am    
  25 C25           24.3316    27.1287    17.7121 C.3     
  26 C26           25.7670    27.6582    17.7012 C.3     
  27 C27           23.1936    24.9741    17.7114 C.2     
  28 C28           26.9050    29.8128    17.7019 C.2     
  29 H29           26.2772    27.3067    16.8044 H       
  30 H30           26.2942    27.2972    18.5843 H       
  31 H31           23.8044    27.4897    16.8290 H       
  32 H32           23.8214    27.4802    18.6089 H       
  33 H33           24.9006    29.5966    17.7159 H       
  34 H34           25.1980    25.1903    17.6934 H       
@<TRIPOS>BOND
   1    3   11 1
   2    4   12 1
   3    5   11 2
   4    6   12 2
   5    7   10 1
   6    7   12 am
   7    7   17 1
   8    8    9 1
   9    8   11 am
  10    8   18 1
  11    9   10 1
  12    9   15 1
  13    9   16 1
  14   10   13 1
  15   10   14 1
  16   19   27 1
  17   20   28 1
  18   21   27 2
  19   22   28 2
  20   23   26 1
  21   23   28 am
  22   23   33 1
  23   24   25 1
  24   24   27 am
  25   24   34 1
  26   25   26 1
  27   25   31 1
  28   25   32 1
  29   26   29 1
  30   26   30 1

#	End of record

