#	Name: ASD01914807
#	Creating user name:	WinNT
#	Creation time:	15. 06. 2019 20:04

#	Modifying user name:	WinNT
#	Modification time:	15. 06. 2019 20:04

#	Program:	/corina/corina34_cracker 3.40 0067  02.08.2006

@<TRIPOS>MOLECULE
ASD01914807
  39   40    0    0    0
SMALL
NO_CHARGES


@<TRIPOS>ATOM
   1 N1             0.0147     1.3580     0.4717 N.pl3   
   2 N2             0.6869    -2.0735    -0.1924 N.pl3   
   3 N3            -0.7125    -2.0817    -0.1368 N.2     
   4 C4            -1.1231    -0.8531     0.1077 C.2     
   5 C5             0.0167    -0.0240     0.2149 C.2     
   6 C6             1.1116    -0.7996     0.0265 C.2     
   7 C7            -2.8133     1.0484     0.3936 C.3     
   8 C8            -2.5286    -0.4186     0.2452 C.2     
   9 C9            -3.4722    -1.3346     0.2314 C.2     
  10 C10           -4.9320    -0.9980     0.3565 C.3     
  11 C11           -5.0888     0.4252     0.8982 C.3     
  12 N12           -4.2276     1.3229     0.1110 N.3     
  13 C13           -4.5535     2.7308     0.3748 C.3     
  14 C14            1.2683     2.1144     0.4202 C.3     
  15 C15            0.9897     3.5854     0.7357 C.3     
  16 C16            2.2989     4.3753     0.6820 C.3     
  17 C17            2.0204     5.8463     0.9975 C.3     
  18 H18           -0.8172     1.8116     0.6790 H       
  19 H19            1.2548    -2.8430    -0.3545 H       
  20 H20            2.1386    -0.4661     0.0468 H       
  21 H21           -2.5820     1.3597     1.4123 H       
  22 H22           -2.1903     1.6093    -0.3030 H       
  23 H23           -3.1868    -2.3708     0.1255 H       
  24 H24           -5.4055    -1.0674    -0.6228 H       
  25 H25           -5.4089    -1.7007     1.0398 H       
  26 H26           -6.1282     0.7400     0.8049 H       
  27 H27           -4.7873     0.4537     1.9453 H       
  28 H28           -3.9398     3.3708    -0.2591 H       
  29 H29           -5.6070     2.9068     0.1574 H       
  30 H30           -4.3556     2.9595     1.4220 H       
  31 H31            1.9663     1.7113     1.1539 H       
  32 H32            1.7015     2.0324    -0.5767 H       
  33 H33            0.2917     3.9885     0.0020 H       
  34 H34            0.5566     3.6674     1.7326 H       
  35 H35            2.9969     3.9722     1.4157 H       
  36 H36            2.7321     4.2933    -0.3149 H       
  37 H37            1.5872     5.9283     1.9944 H       
  38 H38            2.9530     6.4091     0.9592 H       
  39 H39            1.3223     6.2494     0.2638 H       
@<TRIPOS>BOND
   1    1    5 1
   2    1   14 1
   3    1   18 1
   4    2    3 1
   5    2    6 1
   6    2   19 1
   7    3    4 2
   8    4    5 1
   9    4    8 1
  10    5    6 2
  11    6   20 1
  12    7    8 1
  13    7   12 1
  14    7   21 1
  15    7   22 1
  16    8    9 2
  17    9   10 1
  18    9   23 1
  19   10   11 1
  20   10   24 1
  21   10   25 1
  22   11   12 1
  23   11   26 1
  24   11   27 1
  25   12   13 1
  26   13   28 1
  27   13   29 1
  28   13   30 1
  29   14   15 1
  30   14   31 1
  31   14   32 1
  32   15   16 1
  33   15   33 1
  34   15   34 1
  35   16   17 1
  36   16   35 1
  37   16   36 1
  38   17   37 1
  39   17   38 1
  40   17   39 1

#	End of record

