#	Name: ASD04880429
#	Creating user name:	WinNT
#	Creation time:	15. 06. 2019 20:53

#	Modifying user name:	WinNT
#	Modification time:	15. 06. 2019 20:53

#	Program:	/corina/corina34_cracker 3.40 0067  02.08.2006

@<TRIPOS>MOLECULE
ASD04880429
  47   49    0    0    0
SMALL
NO_CHARGES


@<TRIPOS>ATOM
   1 C1            -0.0144     1.2118     0.0087 C.2     
   2 O2             0.0400    -0.0028     0.0316 O.2     
   3 N3             1.1206     1.9363    -0.0482 N.am    
   4 N4             1.1923     3.3205    -0.1909 N.2     
   5 C5             2.3939     3.7852    -0.2190 C.2     
   6 C6             3.3792     2.6463    -0.0840 C.3     
   7 C7             2.4865     1.3953     0.0365 C.3     
   8 C8             2.7079     0.7006     1.3816 C.3     
   9 C9             2.7563     0.4307    -1.1201 C.3     
  10 C10            2.7525     5.2080    -0.3608 C.ar    
  11 C11            1.7501     6.1749    -0.4776 C.ar    
  12 C12            2.0920     7.5072    -0.6104 C.ar    
  13 C13            3.4335     7.8842    -0.6276 C.ar    
  14 C14            4.4285     6.9250    -0.5122 C.ar    
  15 C15            4.0950     5.5938    -0.3731 C.ar    
  16 O16            3.7676     9.1953    -0.7583 O.3     
  17 C17            5.1611     9.5118    -0.7684 C.3     
  18 O18            1.1191     8.4507    -0.7248 O.3     
  19 C19           -0.2344     7.9931    -0.6999 C.3     
  20 C20           -1.3255     1.8934     0.0371 C.ar    
  21 C21           -2.5039     1.1504    -0.0544 C.ar    
  22 C22           -3.7252     1.7935    -0.0267 C.ar    
  23 C23           -3.7821     3.1723     0.0910 C.ar    
  24 C24           -2.6176     3.9133     0.1821 C.ar    
  25 C25           -1.3909     3.2821     0.1614 C.ar    
  26 Cl26          -5.1922     0.8724    -0.1403 Cl      
  27 H27            4.0140     2.5832    -0.9678 H       
  28 H28            3.9840     2.7684     0.8145 H       
  29 H29            2.0138    -0.1343     1.4780 H       
  30 H30            3.7316     0.3300     1.4350 H       
  31 H31            2.5362     1.4111     2.1902 H       
  32 H32            2.6185     0.9518    -2.0674 H       
  33 H33            3.7797     0.0615    -1.0540 H       
  34 H34            2.0629    -0.4083    -1.0627 H       
  35 H35            0.7108     5.8815    -0.4645 H       
  36 H36            5.4669     7.2215    -0.5267 H       
  37 H37            4.8718     4.8494    -0.2785 H       
  38 H38            5.2884    10.5888    -0.8781 H       
  39 H39            5.6145     9.1859     0.1678 H       
  40 H40            5.6435     9.0021    -1.6024 H       
  41 H41           -0.3992     7.3009    -1.5256 H       
  42 H42           -0.4288     7.4849     0.2446 H       
  43 H43           -0.9076     8.8445    -0.7996 H       
  44 H44           -2.4602     0.0753    -0.1470 H       
  45 H45           -4.7398     3.6711     0.1115 H       
  46 H46           -2.6689     4.9882     0.2734 H       
  47 H47           -0.4828     3.8619     0.2367 H       
@<TRIPOS>BOND
   1    1    2 2
   2    1    3 am
   3    1   20 1
   4    3    4 1
   5    3    7 1
   6    4    5 2
   7    5    6 1
   8    5   10 1
   9    6    7 1
  10    6   27 1
  11    6   28 1
  12    7    8 1
  13    7    9 1
  14    8   29 1
  15    8   30 1
  16    8   31 1
  17    9   32 1
  18    9   33 1
  19    9   34 1
  20   10   11 ar
  21   10   15 ar
  22   11   12 ar
  23   11   35 1
  24   12   13 ar
  25   12   18 1
  26   13   14 ar
  27   13   16 1
  28   14   15 ar
  29   14   36 1
  30   15   37 1
  31   16   17 1
  32   17   38 1
  33   17   39 1
  34   17   40 1
  35   18   19 1
  36   19   41 1
  37   19   42 1
  38   19   43 1
  39   20   21 ar
  40   20   25 ar
  41   21   22 ar
  42   21   44 1
  43   22   23 ar
  44   22   26 1
  45   23   24 ar
  46   23   45 1
  47   24   25 ar
  48   24   46 1
  49   25   47 1

#	End of record

