#	Name: ASD01814150
#	Creating user name:	WinNT
#	Creation time:	15. 06. 2019 19:31

#	Modifying user name:	WinNT
#	Modification time:	15. 06. 2019 19:31

#	Program:	/corina/corina34_cracker 3.40 0067  02.08.2006

@<TRIPOS>MOLECULE
ASD01814150
  55   57    0    0    0
SMALL
NO_CHARGES


@<TRIPOS>ATOM
   1 N1            -0.0164     1.3436     0.0075 N.am    
   2 C2             0.0021    -0.0041     0.0020 C.2     
   3 N3            -1.1504    -0.6943     0.1110 N.am    
   4 O4             1.0584    -0.5972    -0.1013 O.2     
   5 C5            -1.1437    -2.1545    -0.0068 C.3     
   6 C6            -2.5695    -2.6857     0.1539 C.3     
   7 N7            -2.5628    -4.1499     0.0357 N.3     
   8 C8            -3.9181    -4.6964     0.1852 C.3     
   9 C9            -1.7356    -7.3459    -0.1501 C.2     
  10 O10           -1.1215    -7.9986    -1.1549 O.3     
  11 O11           -1.1555    -7.1675     0.9026 O.2     
  12 C12            0.2329    -8.4610    -0.9101 C.3     
  13 C13           -1.2882     2.0837     0.0187 C.3     
  14 C14           -1.2339     3.1212     1.1459 C.3     
  15 O15           -0.0452     3.9035     1.0086 O.3     
  16 C16            1.1661     3.1541     1.1308 C.3     
  17 C17            1.2347     2.1183     0.0085 C.3     
  18 C18           -4.6388    -4.6573    -1.1655 C.3     
  19 C19           -3.9493    -5.6105    -2.1460 C.3     
  20 C20           -3.8644    -7.0057    -1.5067 C.3     
  21 N21           -2.9936    -6.8903    -0.3119 N.am    
  22 C22           -3.8354    -6.1550     0.6627 C.3     
  23 C23           -5.2385    -6.7849     0.5057 C.3     
  24 C24           -5.2578    -7.3481    -0.9308 C.3     
  25 C25            0.7614    -9.1742    -2.1562 C.3     
  26 H26           -1.9843    -0.2241     0.2676 H       
  27 H27           -0.7585    -2.4382    -0.9862 H       
  28 H28           -0.5081    -2.5788     0.7704 H       
  29 H29           -2.9547    -2.4020     1.1333 H       
  30 H30           -3.2051    -2.2614    -0.6233 H       
  31 H31           -2.1501    -4.4403    -0.8381 H       
  32 H32           -4.4728    -4.1032     0.9122 H       
  33 H33            0.8721    -7.6083    -0.6810 H       
  34 H34            0.2341    -9.1526    -0.0676 H       
  35 H35           -1.4282     2.5876    -0.9376 H       
  36 H36           -2.1131     1.3933     0.1947 H       
  37 H37           -2.1067     3.7712     1.0848 H       
  38 H38           -1.2252     2.6117     2.1095 H       
  39 H39            2.0199     3.8279     1.0588 H       
  40 H40            1.1835     2.6448     2.0943 H       
  41 H41            2.0809     1.4517     0.1754 H       
  42 H42            1.3481     2.6233    -0.9508 H       
  43 H43           -5.6765    -4.9627    -1.0319 H       
  44 H44           -4.6083    -3.6431    -1.5637 H       
  45 H45           -4.5271    -5.6662    -3.0686 H       
  46 H46           -2.9450    -5.2469    -2.3636 H       
  47 H47           -3.5032    -7.7572    -2.2087 H       
  48 H48           -3.4511    -6.2323     1.6798 H       
  49 H49           -5.3776    -7.5874     1.2300 H       
  50 H50           -6.0112    -6.0255     0.6261 H       
  51 H51           -6.0399    -6.8659    -1.5172 H       
  52 H52           -5.4064    -8.4278    -0.9133 H       
  53 H53            0.7603    -8.4825    -2.9987 H       
  54 H54            1.7782    -9.5213    -1.9725 H       
  55 H55            0.1223   -10.0269    -2.3853 H       
@<TRIPOS>BOND
   1    1    2 am
   2    1   13 1
   3    1   17 1
   4    2    3 am
   5    2    4 2
   6    3    5 1
   7    3   26 1
   8    5    6 1
   9    5   27 1
  10    5   28 1
  11    6    7 1
  12    6   29 1
  13    6   30 1
  14    7    8 1
  15    7   31 1
  16    8   18 1
  17    8   22 1
  18    8   32 1
  19    9   10 1
  20    9   11 2
  21    9   21 am
  22   10   12 1
  23   12   25 1
  24   12   33 1
  25   12   34 1
  26   13   14 1
  27   13   35 1
  28   13   36 1
  29   14   15 1
  30   14   37 1
  31   14   38 1
  32   15   16 1
  33   16   17 1
  34   16   39 1
  35   16   40 1
  36   17   41 1
  37   17   42 1
  38   18   19 1
  39   18   43 1
  40   18   44 1
  41   19   20 1
  42   19   45 1
  43   19   46 1
  44   20   21 1
  45   20   24 1
  46   20   47 1
  47   21   22 1
  48   22   23 1
  49   22   48 1
  50   23   24 1
  51   23   49 1
  52   23   50 1
  53   24   51 1
  54   24   52 1
  55   25   53 1
  56   25   54 1
  57   25   55 1

#	End of record

