#	Name: ASD00660022
#	Creating user name:	WinNT
#	Creation time:	15. 06. 2019 18:36

#	Modifying user name:	WinNT
#	Modification time:	15. 06. 2019 18:36

#	Program:	/corina/corina34_cracker 3.40 0067  02.08.2006

@<TRIPOS>MOLECULE
ASD00660022
  67   70    0    0    0
SMALL
NO_CHARGES


@<TRIPOS>ATOM
   1 C1             8.5436    -1.6452    -6.6644 C.ar    
   2 C2             8.0909    -2.8903    -6.2468 C.ar    
   3 C3             7.5982    -3.0713    -4.9746 C.ar    
   4 C4             7.5521    -1.9905    -4.0897 C.ar    
   5 C5             8.0141    -0.7247    -4.5180 C.ar    
   6 C6             8.5087    -0.5642    -5.8113 C.ar    
   7 N7             7.0744    -2.1267    -2.8304 N.2     
   8 C8             7.0306    -1.1137    -2.0007 C.2     
   9 N9             7.4569     0.1422    -2.3346 N.am    
  10 C10            7.9538     0.3939    -3.5677 C.2     
  11 C11            7.3782     1.1762    -1.3926 C.ar    
  12 O12            8.3371     1.5068    -3.8783 O.2     
  13 S13            6.3925    -1.3816    -0.3803 S.3     
  14 C14            5.8380    -3.0971    -0.5405 C.3     
  15 C15            7.0358    -4.0021    -0.6711 C.2     
  16 N16            6.9153    -5.1949    -1.2869 N.am    
  17 O17            8.1084    -3.6571    -0.2222 O.2     
  18 C18            8.0740    -6.0881    -1.4219 C.3     
  19 C19            8.2376    -6.4637    -2.8981 C.3     
  20 C20            6.9251    -7.0537    -3.4187 C.3     
  21 C21            5.8136    -6.0076    -3.3068 C.3     
  22 C22            5.6212    -5.6294    -1.8304 C.3     
  23 C23            7.0927    -7.4558    -4.8614 C.2     
  24 N24            6.0601    -8.0028    -5.5329 N.am    
  25 O25            8.1569    -7.2870    -5.4182 O.2     
  26 C26            5.0339    -3.4911     0.7001 C.3     
  27 C27            3.7518    -2.6585     0.7626 C.3     
  28 C28            2.8884    -3.1385     1.9309 C.3     
  29 C29            1.6063    -2.3059     1.9934 C.3     
  30 C30            6.1397     1.6387    -0.9698 C.ar    
  31 C31            6.0654     2.6593    -0.0401 C.ar    
  32 C32            7.2244     3.2190     0.4683 C.ar    
  33 C33            8.4592     2.7595     0.0482 C.ar    
  34 C34            8.5392     1.7364    -0.8759 C.ar    
  35 Cl35           4.5173     3.2394     0.4895 Cl      
  36 C36            9.0020     0.7828    -6.2731 C.3     
  37 H37            8.9305    -1.5247    -7.6654 H       
  38 H38            8.1258    -3.7267    -6.9292 H       
  39 H39            7.2484    -4.0439    -4.6616 H       
  40 H40            5.2104    -3.1948    -1.4263 H       
  41 H41            8.9716    -5.5775    -1.0731 H       
  42 H42            7.9111    -6.9897    -0.8314 H       
  43 H43            8.4901    -5.5734    -3.4741 H       
  44 H44            9.0337    -7.2012    -2.9997 H       
  45 H45            6.6604    -7.9296    -2.8263 H       
  46 H46            6.0889    -5.1217    -3.8790 H       
  47 H47            4.8844    -6.4206    -3.6994 H       
  48 H48            5.2579    -6.4946    -1.2759 H       
  49 H49            4.9015    -4.8145    -1.7527 H       
  50 H50            5.2090    -8.1378    -5.0876 H       
  51 H51            6.1680    -8.2616    -6.4615 H       
  52 H52            4.7778    -4.5492     0.6461 H       
  53 H53            5.6307    -3.3069     1.5935 H       
  54 H54            4.0071    -1.6086     0.9068 H       
  55 H55            3.1983    -2.7732    -0.1694 H       
  56 H56            2.6332    -4.1884     1.7868 H       
  57 H57            3.4419    -3.0238     2.8629 H       
  58 H58            0.9912    -2.6479     2.8258 H       
  59 H59            1.8615    -1.2561     2.1376 H       
  60 H60            1.0528    -2.4206     1.0614 H       
  61 H61            5.2351     1.2022    -1.3668 H       
  62 H62            7.1645     4.0164     1.1942 H       
  63 H63            9.3620     3.1982     0.4467 H       
  64 H64            9.5041     1.3781    -1.2031 H       
  65 H65           10.0317     0.9247    -5.9450 H       
  66 H66            8.9572     0.8327    -7.3611 H       
  67 H67            8.3739     1.5653    -5.8473 H       
@<TRIPOS>BOND
   1    1    2 ar
   2    1    6 ar
   3    1   37 1
   4    2    3 ar
   5    2   38 1
   6    3    4 ar
   7    3   39 1
   8    4    5 ar
   9    4    7 1
  10    5    6 ar
  11    5   10 1
  12    6   36 1
  13    7    8 2
  14    8    9 1
  15    8   13 1
  16    9   10 am
  17    9   11 1
  18   10   12 2
  19   11   30 ar
  20   11   34 ar
  21   13   14 1
  22   14   15 1
  23   14   26 1
  24   14   40 1
  25   15   16 am
  26   15   17 2
  27   16   18 1
  28   16   22 1
  29   18   19 1
  30   18   41 1
  31   18   42 1
  32   19   20 1
  33   19   43 1
  34   19   44 1
  35   20   21 1
  36   20   23 1
  37   20   45 1
  38   21   22 1
  39   21   46 1
  40   21   47 1
  41   22   48 1
  42   22   49 1
  43   23   24 am
  44   23   25 2
  45   24   50 1
  46   24   51 1
  47   26   27 1
  48   26   52 1
  49   26   53 1
  50   27   28 1
  51   27   54 1
  52   27   55 1
  53   28   29 1
  54   28   56 1
  55   28   57 1
  56   29   58 1
  57   29   59 1
  58   29   60 1
  59   30   31 ar
  60   30   61 1
  61   31   32 ar
  62   31   35 1
  63   32   33 ar
  64   32   62 1
  65   33   34 ar
  66   33   63 1
  67   34   64 1
  68   36   65 1
  69   36   66 1
  70   36   67 1

#	End of record

