#	Name: ASD04882315
#	Creating user name:	WinNT
#	Creation time:	15. 06. 2019 20:54

#	Modifying user name:	WinNT
#	Modification time:	15. 06. 2019 20:54

#	Program:	/corina/corina34_cracker 3.40 0067  02.08.2006

@<TRIPOS>MOLECULE
ASD04882315
  81   86    0    0    0
SMALL
NO_CHARGES


@<TRIPOS>ATOM
   1 N1            -0.0169     1.3967     0.0097 N.am    
   2 C2             0.1106     0.0023    -0.0343 C.ar    
   3 C3            -1.0262    -0.8069     0.0452 C.ar    
   4 C4            -0.9012    -2.1908     0.0011 C.ar    
   5 C5             0.3426    -2.7693    -0.1210 C.ar    
   6 C6             1.4836    -1.9660    -0.2011 C.ar    
   7 C7             1.3602    -0.5743    -0.1623 C.ar    
   8 N8            -2.2857    -0.2262     0.1693 N.3     
   9 C9            -3.1518    -0.6010    -0.9572 C.3     
  10 C10           -2.9080    -0.5867     1.4509 C.3     
  11 C11           -4.2521     0.1332     1.5827 C.3     
  12 N12           -5.1182    -0.2416     0.4562 N.3     
  13 C13           -4.4960     0.1189    -0.8254 C.3     
  14 C14            2.8158    -2.5861    -0.3315 C.2     
  15 O15            3.8079    -1.8865    -0.4011 O.2     
  16 C16            0.9205     2.1775    -0.5630 C.2     
  17 C17            0.7428     3.6378    -0.5942 C.2     
  18 O18            1.9135     1.6750    -1.0542 O.2     
  19 N19            2.9333    -3.9281    -0.3734 N.am    
  20 C20           -6.3815     0.3409     0.5806 C.ar    
  21 C21           -6.5093     1.7232     0.6254 C.ar    
  22 C22           -7.5137    -0.4609     0.6542 C.ar    
  23 C23           -8.7612     0.1182     0.7773 C.ar    
  24 C24           -8.8844     1.4949     0.8268 C.ar    
  25 C25           -7.7601     2.2960     0.7486 C.ar    
  26 C26            4.2563    -4.5438    -0.5028 C.3     
  27 C27            1.6088     4.5686    -1.1416 C.2     
  28 C28            1.0045     5.8089    -0.9238 C.2     
  29 N29           -0.1252     5.6005    -0.2972 N.2     
  30 N30           -0.3127     4.3461    -0.0940 N.pl3   
  31 C31           -7.3806    -1.9610     0.5993 C.3     
  32 C32            1.5560     7.1492    -1.3368 C.3     
  33 C33            2.5482     7.8271    -0.3897 C.3     
  34 C34            3.0392     7.2197    -1.7054 C.3     
  35 C35            4.1100    -6.0667    -0.5261 C.3     
  36 C36            5.4917    -6.7098    -0.6613 C.3     
  37 N37            5.3516    -8.1679    -0.6836 N.am    
  38 C38            5.1676    -8.9635    -1.9030 C.3     
  39 C39            4.6410   -10.3348    -1.4248 C.3     
  40 C40            5.1926   -10.3986     0.0183 C.3     
  41 C41            5.3808    -8.9494     0.4097 C.2     
  42 O42            5.5290    -8.5502     1.5453 O.2     
  43 H43           -0.7819     1.8001     0.4490 H       
  44 H44           -1.7814    -2.8135     0.0632 H       
  45 H45            0.4364    -3.8447    -0.1546 H       
  46 H46            2.2400     0.0490    -0.2243 H       
  47 H47           -2.6751    -0.3126    -1.8941 H       
  48 H48           -3.3141    -1.6788    -0.9482 H       
  49 H49           -3.0675    -1.6643     1.4873 H       
  50 H50           -2.2535    -0.2878     2.2697 H       
  51 H51           -4.7288    -0.1552     2.5196 H       
  52 H52           -4.0898     1.2111     1.5737 H       
  53 H53           -4.3364     1.1965    -0.8618 H       
  54 H54           -5.1504    -0.1800    -1.6442 H       
  55 H55            2.1419    -4.4862    -0.3179 H       
  56 H56           -5.6316     2.3495     0.5643 H       
  57 H57           -9.6417    -0.5045     0.8345 H       
  58 H58           -9.8613     1.9453     0.9224 H       
  59 H59           -7.8598     3.3706     0.7876 H       
  60 H60            4.7237    -4.2095    -1.4291 H       
  61 H61            4.8776    -4.2514     0.3437 H       
  62 H62            2.5515     4.3767    -1.6323 H       
  63 H63           -1.0828     3.9612     0.3528 H       
  64 H64           -7.2609    -2.3524     1.6096 H       
  65 H65           -8.2755    -2.3890     0.1475 H       
  66 H66           -6.5090    -2.2268     0.0011 H       
  67 H67            0.8688     7.7904    -1.8889 H       
  68 H68            2.5141     8.9143    -0.3191 H       
  69 H69            2.8021     7.3036     0.5320 H       
  70 H70            3.6162     6.2967    -1.6492 H       
  71 H71            3.3282     7.9073    -2.5003 H       
  72 H72            3.6427    -6.4010     0.4002 H       
  73 H73            3.4888    -6.3591    -1.3726 H       
  74 H74            5.9590    -6.3754    -1.5875 H       
  75 H75            6.1130    -6.4173     0.1853 H       
  76 H76            4.4383    -8.4869    -2.5579 H       
  77 H77            6.1188    -9.0847    -2.4214 H       
  78 H78            3.5512   -10.3565    -1.4272 H       
  79 H79            5.0470   -11.1426    -2.0337 H       
  80 H80            4.4757   -10.8852     0.6796 H       
  81 H81            6.1483   -10.9224     0.0386 H       
@<TRIPOS>BOND
   1    1    2 1
   2    1   16 am
   3    1   43 1
   4    2    3 ar
   5    2    7 ar
   6    3    4 ar
   7    3    8 1
   8    4    5 ar
   9    4   44 1
  10    5    6 ar
  11    5   45 1
  12    6    7 ar
  13    6   14 1
  14    7   46 1
  15    8    9 1
  16    8   10 1
  17    9   13 1
  18    9   47 1
  19    9   48 1
  20   10   11 1
  21   10   49 1
  22   10   50 1
  23   11   12 1
  24   11   51 1
  25   11   52 1
  26   12   13 1
  27   12   20 1
  28   13   53 1
  29   13   54 1
  30   14   15 2
  31   14   19 am
  32   16   18 2
  33   16   17 1
  34   17   27 2
  35   17   30 1
  36   19   26 1
  37   19   55 1
  38   20   21 ar
  39   20   22 ar
  40   21   25 ar
  41   21   56 1
  42   22   23 ar
  43   22   31 1
  44   23   24 ar
  45   23   57 1
  46   24   25 ar
  47   24   58 1
  48   25   59 1
  49   26   35 1
  50   26   60 1
  51   26   61 1
  52   27   28 1
  53   27   62 1
  54   28   29 2
  55   28   32 1
  56   29   30 1
  57   30   63 1
  58   31   64 1
  59   31   65 1
  60   31   66 1
  61   32   33 1
  62   32   34 1
  63   32   67 1
  64   33   34 1
  65   33   68 1
  66   33   69 1
  67   34   70 1
  68   34   71 1
  69   35   36 1
  70   35   72 1
  71   35   73 1
  72   36   37 1
  73   36   74 1
  74   36   75 1
  75   37   38 1
  76   37   41 am
  77   38   39 1
  78   38   76 1
  79   38   77 1
  80   39   40 1
  81   39   78 1
  82   39   79 1
  83   40   41 1
  84   40   80 1
  85   40   81 1
  86   41   42 2

#	End of record

