#	Name: ASD04882091
#	Creating user name:	WinNT
#	Creation time:	15. 06. 2019 20:54

#	Modifying user name:	WinNT
#	Modification time:	15. 06. 2019 20:54

#	Program:	/corina/corina34_cracker 3.40 0067  02.08.2006

@<TRIPOS>MOLECULE
ASD04882091
  85   89    0    0    0
SMALL
NO_CHARGES


@<TRIPOS>ATOM
   1 C1             2.2077     1.8454    -0.7980 C.ar    
   2 C2             2.2422     0.4678    -0.7101 C.ar    
   3 C3             1.0597    -0.2473    -0.5660 C.ar    
   4 C4            -0.1534     0.4267    -0.5109 C.ar    
   5 C5            -0.1807     1.8048    -0.5995 C.ar    
   6 C6             0.9979     2.5134    -0.7429 C.ar    
   7 C7            -1.4386    -0.3448    -0.3552 C.3     
   8 N8             1.0909    -1.6409    -0.4772 N.3     
   9 C9             0.6768    -2.0929     0.8583 C.3     
  10 C10            2.4231    -2.1605    -0.8164 C.3     
  11 C11            2.3942    -3.6904    -0.7847 C.3     
  12 N12            1.9800    -4.1424     0.5509 N.3     
  13 C13            0.6479    -3.6228     0.8900 C.3     
  14 C14            2.0111    -5.5317     0.6394 C.ar    
  15 C15            1.2225    -6.2990    -0.2097 C.ar    
  16 C16            2.8399    -6.1530     1.5783 C.ar    
  17 C17            2.8709    -7.5316     1.6656 C.ar    
  18 C18            2.0726    -8.3010     0.8139 C.ar    
  19 C19            1.2501    -7.6737    -0.1256 C.ar    
  20 N20            3.6387    -5.3784     2.4296 N.am    
  21 C21            3.8947    -5.8016     3.6834 C.2     
  22 C22            4.6414    -4.9336     4.6185 C.ar    
  23 O23            3.5116    -6.8971     4.0453 O.2     
  24 C24            2.1027    -9.7732     0.9031 C.2     
  25 O25            2.8222   -10.3184     1.7178 O.2     
  26 N26            1.3328   -10.5140     0.0816 N.am    
  27 C27            1.3627   -11.9761     0.1702 C.3     
  28 C28            0.4045   -12.5694    -0.8645 C.3     
  29 C29            0.4358   -14.0963    -0.7720 C.3     
  30 N30           -0.4817   -14.6645    -1.7628 N.am    
  31 C31           -0.1027   -15.0166    -3.1363 C.3     
  32 C32           -1.4332   -15.1493    -3.9098 C.3     
  33 C33           -2.4239   -15.4991    -2.7753 C.3     
  34 C34           -1.7773   -14.9356    -1.5291 C.2     
  35 O35           -2.3469   -14.7487    -0.4748 O.2     
  36 C36            5.0825    -3.6749     4.2053 C.ar    
  37 C37            4.9025    -5.3668     5.9182 C.ar    
  38 C38            5.6032    -4.5466     6.7897 C.ar    
  39 C39            6.0424    -3.2977     6.3668 C.ar    
  40 C40            5.7788    -2.8663     5.0800 C.ar    
  41 N41            5.8671    -4.9756     8.0929 N.pl3   
  42 C42            5.4036    -6.2919     8.5387 C.3     
  43 C43            6.6072    -4.1091     9.0135 C.3     
  44 H44            3.1269     2.4022    -0.9055 H       
  45 H45            3.1872    -0.0532    -0.7536 H       
  46 H46           -1.1237     2.3295    -0.5567 H       
  47 H47            0.9738     3.5909    -0.8115 H       
  48 H48           -1.6307    -0.5209     0.7032 H       
  49 H49           -2.2608     0.2286    -0.7833 H       
  50 H50           -1.3538    -1.3003    -0.8729 H       
  51 H51            1.3849    -1.7271     1.6019 H       
  52 H52           -0.3175    -1.7057     1.0812 H       
  53 H53            2.7020    -1.8226    -1.8144 H       
  54 H54            3.1511    -1.7955    -0.0919 H       
  55 H55            1.6860    -4.0562    -1.5283 H       
  56 H56            3.3884    -4.0776    -1.0076 H       
  57 H57            0.3690    -3.9607     1.8880 H       
  58 H58           -0.0801    -3.9878     0.1655 H       
  59 H59            0.5863    -5.8164    -0.9369 H       
  60 H60            3.5106    -8.0138     2.3899 H       
  61 H61            0.6331    -8.2671    -0.7840 H       
  62 H62            4.0075    -4.5376     2.1168 H       
  63 H63            0.7588   -10.0792    -0.5683 H       
  64 H64            2.3744   -12.3313    -0.0256 H       
  65 H65            1.0558   -12.2859     1.1692 H       
  66 H66           -0.6072   -12.2142    -0.6687 H       
  67 H67            0.7114   -12.2596    -1.8635 H       
  68 H68            1.4475   -14.4516    -0.9678 H       
  69 H69            0.1289   -14.4061     0.2270 H       
  70 H70            0.5102   -14.2277    -3.5724 H       
  71 H71            0.4364   -15.9638    -3.1477 H       
  72 H72           -1.7030   -14.2069    -4.3865 H       
  73 H73           -1.3796   -15.9542    -4.6429 H       
  74 H74           -3.3902   -15.0273    -2.9537 H       
  75 H75           -2.5365   -16.5796    -2.6868 H       
  76 H76            4.8789    -3.3343     3.2008 H       
  77 H77            4.5600    -6.3375     6.2449 H       
  78 H78            6.5876    -2.6601     7.0470 H       
  79 H79            6.1229    -1.8949     4.7570 H       
  80 H80            6.1723    -7.0367     8.3327 H       
  81 H81            5.2035    -6.2630     9.6098 H       
  82 H82            4.4902    -6.5553     8.0054 H       
  83 H83            6.0633    -3.1742     9.1491 H       
  84 H84            6.7151    -4.6094     9.9758 H       
  85 H85            7.5938    -3.8988     8.6006 H       
@<TRIPOS>BOND
   1    1    2 ar
   2    1    6 ar
   3    1   44 1
   4    2    3 ar
   5    2   45 1
   6    3    4 ar
   7    3    8 1
   8    4    5 ar
   9    4    7 1
  10    5    6 ar
  11    5   46 1
  12    6   47 1
  13    7   48 1
  14    7   49 1
  15    7   50 1
  16    8    9 1
  17    8   10 1
  18    9   13 1
  19    9   51 1
  20    9   52 1
  21   10   11 1
  22   10   53 1
  23   10   54 1
  24   11   12 1
  25   11   55 1
  26   11   56 1
  27   12   13 1
  28   12   14 1
  29   13   57 1
  30   13   58 1
  31   14   15 ar
  32   14   16 ar
  33   15   19 ar
  34   15   59 1
  35   16   17 ar
  36   16   20 1
  37   17   18 ar
  38   17   60 1
  39   18   19 ar
  40   18   24 1
  41   19   61 1
  42   20   21 am
  43   20   62 1
  44   21   22 1
  45   21   23 2
  46   22   36 ar
  47   22   37 ar
  48   24   25 2
  49   24   26 am
  50   26   27 1
  51   26   63 1
  52   27   28 1
  53   27   64 1
  54   27   65 1
  55   28   29 1
  56   28   66 1
  57   28   67 1
  58   29   30 1
  59   29   68 1
  60   29   69 1
  61   30   31 1
  62   30   34 am
  63   31   32 1
  64   31   70 1
  65   31   71 1
  66   32   33 1
  67   32   72 1
  68   32   73 1
  69   33   34 1
  70   33   74 1
  71   33   75 1
  72   34   35 2
  73   36   40 ar
  74   36   76 1
  75   37   38 ar
  76   37   77 1
  77   38   39 ar
  78   38   41 1
  79   39   40 ar
  80   39   78 1
  81   40   79 1
  82   41   42 1
  83   41   43 1
  84   42   80 1
  85   42   81 1
  86   42   82 1
  87   43   83 1
  88   43   84 1
  89   43   85 1

#	End of record

