#	Name: ASD01440010
#	Creating user name:	WinNT
#	Creation time:	15. 06. 2019 19:20

#	Modifying user name:	WinNT
#	Modification time:	15. 06. 2019 19:20

#	Program:	/corina/corina34_cracker 3.40 0067  02.08.2006

@<TRIPOS>MOLECULE
ASD01440010
  42   43    0    0    0
SMALL
NO_CHARGES


@<TRIPOS>ATOM
   1 C1            -0.0178     1.4648     0.0101 C.3     
   2 N2             0.0021    -0.0041     0.0020 N.3     
   3 C3             0.7062    -0.5275     1.1802 C.3     
   4 C4             2.1851    -0.1430     1.1032 C.3     
   5 C5             2.9074    -0.6800     2.3119 C.ar    
   6 C6             3.4718    -1.9413     2.2760 C.ar    
   7 C7             4.1343    -2.4339     3.3847 C.ar    
   8 C8             4.2328    -1.6649     4.5292 C.ar    
   9 C9             3.6692    -0.4032     4.5648 C.ar    
  10 C10            3.0104     0.0911     3.4546 C.ar    
  11 C11           -1.3597    -0.5486    -0.0825 C.3     
  12 C12           -1.9710    -0.1854    -1.4372 C.3     
  13 O13           -1.2392    -0.8339    -2.4793 O.3     
  14 C14           -1.6557    -0.6148    -3.7542 C.ar    
  15 C15           -0.9909    -1.2130    -4.8148 C.ar    
  16 C16           -1.4165    -0.9890    -6.1098 C.ar    
  17 C17           -2.5040    -0.1694    -6.3494 C.ar    
  18 C18           -3.1682     0.4280    -5.2941 C.ar    
  19 C19           -2.7498     0.2030    -3.9969 C.ar    
  20 N20           -2.9576     0.0693    -7.7379 N.pl3   
  21 O21           -2.3730    -0.4562    -8.6683 O.2     
  22 O22           -3.9154     0.7911    -7.9501 O.2     
  23 H23            1.0047     1.8421     0.0024 H       
  24 H24           -0.5450     1.8259    -0.8730 H       
  25 H25           -0.5280     1.8163     0.9069 H       
  26 H26            0.2673    -0.1040     2.0837 H       
  27 H27            0.6139    -1.6133     1.2060 H       
  28 H28            2.6240    -0.5665     0.1998 H       
  29 H29            2.2773     0.9428     1.0774 H       
  30 H30            3.3949    -2.5421     1.3818 H       
  31 H31            4.5747    -3.4196     3.3569 H       
  32 H32            4.7498    -2.0500     5.3957 H       
  33 H33            3.7458     0.1974     5.4591 H       
  34 H34            2.5700     1.0768     3.4824 H       
  35 H35           -1.3244    -1.6331     0.0212 H       
  36 H36           -1.9698    -0.1268     0.7163 H       
  37 H37           -3.0106    -0.5117    -1.4659 H       
  38 H38           -1.9251     0.8944    -1.5788 H       
  39 H39           -0.1413    -1.8530    -4.6282 H       
  40 H40           -0.8992    -1.4542    -6.9359 H       
  41 H41           -4.0171     1.0681    -5.4838 H       
  42 H42           -3.2689     0.6698    -3.1729 H       
@<TRIPOS>BOND
   1    1    2 1
   2    1   23 1
   3    1   24 1
   4    1   25 1
   5    2    3 1
   6    2   11 1
   7    3    4 1
   8    3   26 1
   9    3   27 1
  10    4    5 1
  11    4   28 1
  12    4   29 1
  13    5    6 ar
  14    5   10 ar
  15    6    7 ar
  16    6   30 1
  17    7    8 ar
  18    7   31 1
  19    8    9 ar
  20    8   32 1
  21    9   10 ar
  22    9   33 1
  23   10   34 1
  24   11   12 1
  25   11   35 1
  26   11   36 1
  27   12   13 1
  28   12   37 1
  29   12   38 1
  30   13   14 1
  31   14   15 ar
  32   14   19 ar
  33   15   16 ar
  34   15   39 1
  35   16   17 ar
  36   16   40 1
  37   17   18 ar
  38   17   20 1
  39   18   19 ar
  40   18   41 1
  41   19   42 1
  42   20   21 2
  43   20   22 2

#	End of record

