#	Name: ASD01882790
#	Creating user name:	WinNT
#	Creation time:	15. 06. 2019 19:45

#	Modifying user name:	WinNT
#	Modification time:	15. 06. 2019 19:45

#	Program:	/corina/corina34_cracker 3.40 0067  02.08.2006

@<TRIPOS>MOLECULE
ASD01882790
  25   26    0    0    0
SMALL
NO_CHARGES


@<TRIPOS>ATOM
   1 O1            -0.0173     1.4248     0.0099 O.3     
   2 C2             0.0021    -0.0041     0.0020 C.3     
   3 C3             1.2831     0.8325    -0.0057 C.3     
   4 C4            -0.3680    -0.7292     1.2974 C.3     
   5 O5            -1.5561    -1.4961     1.0913 O.3     
   6 C6            -2.0238    -2.2062     2.1514 C.ar    
   7 C7            -3.1722    -2.9722     2.0212 C.ar    
   8 C8            -3.6467    -3.6952     3.1044 C.ar    
   9 C9            -2.9717    -3.6510     4.3163 C.ar    
  10 C10           -1.8276    -2.8870     4.4435 C.ar    
  11 C11           -1.3493    -2.1697     3.3635 C.ar    
  12 O12           -4.7723    -4.4466     2.9800 O.3     
  13 C13           -5.2035    -5.1655     4.1372 C.3     
  14 F14           -5.4657    -4.2648     5.1750 F       
  15 F15           -6.3675    -5.8805     3.8350 F       
  16 F16           -4.1997    -6.0553     4.5344 F       
  17 H17           -0.2792    -0.5108    -0.9211 H       
  18 H18            1.8523     0.8812    -0.9340 H       
  19 H19            1.8699     0.8713     0.9120 H       
  20 H20            0.4467    -1.3924     1.5881 H       
  21 H21           -0.5402     0.0024     2.0869 H       
  22 H22           -3.6962    -3.0051     1.0775 H       
  23 H23           -3.3412    -4.2139     5.1607 H       
  24 H24           -1.3037    -2.8538     5.3874 H       
  25 H25           -0.4521    -1.5770     3.4640 H       
@<TRIPOS>BOND
   1    1    2 1
   2    1    3 1
   3    2    3 1
   4    2    4 1
   5    2   17 1
   6    3   18 1
   7    3   19 1
   8    4    5 1
   9    4   20 1
  10    4   21 1
  11    5    6 1
  12    6    7 ar
  13    6   11 ar
  14    7    8 ar
  15    7   22 1
  16    8    9 ar
  17    8   12 1
  18    9   10 ar
  19    9   23 1
  20   10   11 ar
  21   10   24 1
  22   11   25 1
  23   12   13 1
  24   13   14 1
  25   13   15 1
  26   13   16 1

#	End of record

