#	Name: ASD09116447
#	Creating user name:	WinNT
#	Creation time:	15. 06. 2019 21:21

#	Modifying user name:	WinNT
#	Modification time:	15. 06. 2019 21:21

#	Program:	/corina/corina34_cracker 3.40 0067  02.08.2006

@<TRIPOS>MOLECULE
ASD09116447
  84   91    0    0    0
SMALL
NO_CHARGES


@<TRIPOS>ATOM
   1 N1            -0.0589     1.5274    -0.5288 N.2     
   2 N2            -0.0821     0.2487    -1.1085 N.pl3   
   3 C3             1.1949     1.9112    -0.4981 C.2     
   4 N4             1.9589     0.9471    -1.0250 N.2     
   5 C5             1.2029    -0.0631    -1.3982 C.2     
   6 N6             1.6430    -1.2354    -1.9828 N.pl3   
   7 C7            -1.2078    -0.5444    -1.3399 C.ar    
   8 N8             1.6573     3.1283     0.0023 N.pl3   
   9 C9             3.0333     3.3746     0.0833 C.ar    
  10 C10            3.5137     4.6731    -0.0243 C.ar    
  11 C11            3.9170     2.3209     0.2769 C.ar    
  12 C12            5.2745     2.5629     0.3574 C.ar    
  13 C13            5.7565     3.8596     0.2453 C.ar    
  14 C14            4.8723     4.9159     0.0562 C.ar    
  15 N15           -1.1860    -1.4614    -2.2954 N.ar    
  16 N16           -2.1981    -2.2113    -2.5547 N.ar    
  17 C17           -3.3279    -2.1082    -1.8788 C.ar    
  18 C18           -3.4379    -1.1786    -0.8348 C.ar    
  19 C19           -2.3544    -0.3738    -0.5594 C.ar    
  20 N20            7.1339     4.1048     0.3274 N.3     
  21 C21            7.6707     3.6634     1.6210 C.3     
  22 C22            9.1399     4.0768     1.7329 C.3     
  23 C23            9.9325     3.4420     0.5869 C.3     
  24 C24            9.3231     3.8791    -0.7481 C.3     
  25 C25            7.8486     3.4714    -0.7881 C.3     
  26 N26           11.3323     3.8822     0.6551 N.3     
  27 F27            5.3409     6.1783    -0.0530 F       
  28 C28           12.1489     3.2000    -0.3585 C.3     
  29 C29           11.8851     3.6731     2.0006 C.3     
  30 C30           13.3152     4.2160     2.0517 C.3     
  31 N31           14.1318     3.5338     1.0381 N.3     
  32 C32           13.5790     3.7429    -0.3074 C.3     
  33 C33           15.5316     3.9740     1.1063 C.3     
  34 C34           -4.5094    -2.9515    -2.1710 C.ar    
  35 C35           -5.7389    -2.5951    -1.6017 C.ar    
  36 O36           -5.8298    -1.4812    -0.8319 O.3     
  37 C37           -4.7067    -1.1092    -0.0366 C.3     
  38 C38           -4.4159    -4.0733    -2.9849 C.ar    
  39 C39           -5.5390    -4.8422    -3.2209 C.ar    
  40 C40           -6.7513    -4.4978    -2.6486 C.ar    
  41 C41           -6.8543    -3.3801    -1.8421 C.ar    
  42 C42           -4.6074    -2.0342     1.1871 C.3     
  43 C43           -4.7503    -1.1332     2.4316 C.3     
  44 C44           -5.5108     0.1129     1.9132 C.3     
  45 C45           -4.9060     0.3207     0.5021 C.3     
  46 H46            2.5889    -1.3676    -2.1521 H       
  47 H47            1.0060    -1.9261    -2.2238 H       
  48 H48            1.0256     3.8041     0.2942 H       
  49 H49            2.8262     5.4930    -0.1711 H       
  50 H50            3.5425     1.3117     0.3650 H       
  51 H51            5.9610     1.7429     0.5080 H       
  52 H52           -2.3923     0.3671     0.2255 H       
  53 H53            7.1010     4.1253     2.4273 H       
  54 H54            7.5919     2.5788     1.6959 H       
  55 H55            9.2182     5.1623     1.6719 H       
  56 H56            9.5424     3.7354     2.6866 H       
  57 H57            9.8867     2.3561     0.6700 H       
  58 H58            9.4042     4.9614    -0.8481 H       
  59 H59            9.8565     3.3964    -1.5670 H       
  60 H60            7.7690     2.3877    -0.7019 H       
  61 H61            7.4081     3.7938    -1.7315 H       
  62 H62           12.1591     2.1289    -0.1566 H       
  63 H63           11.7267     3.3801    -1.3471 H       
  64 H64           11.2705     4.1981     2.7319 H       
  65 H65           11.8923     2.6074     2.2292 H       
  66 H66           13.3050     5.2871     1.8498 H       
  67 H67           13.7374     4.0359     3.0403 H       
  68 H68           14.1936     3.2179    -1.0387 H       
  69 H69           13.5718     4.8086    -0.5360 H       
  70 H70           15.9364     3.7463     2.0924 H       
  71 H71           16.1137     3.4537     0.3457 H       
  72 H72           15.5835     5.0487     0.9316 H       
  73 H73           -3.4701    -4.3428    -3.4311 H       
  74 H74           -5.4711    -5.7145    -3.8542 H       
  75 H75           -7.6236    -5.1072    -2.8337 H       
  76 H76           -7.8042    -3.1189    -1.3995 H       
  77 H77           -5.4107    -2.7707     1.1649 H       
  78 H78           -3.6400    -2.5362     1.1985 H       
  79 H79           -5.3290    -1.6391     3.2044 H       
  80 H80           -3.7690    -0.8502     2.8123 H       
  81 H81           -6.5805    -0.0864     1.8494 H       
  82 H82           -5.3149     0.9767     2.5484 H       
  83 H83           -3.9499     0.8399     0.5693 H       
  84 H84           -5.5983     0.8745    -0.1321 H       
@<TRIPOS>BOND
   1    1    2 1
   2    1    3 2
   3    2    7 1
   4    2    5 1
   5    3    4 1
   6    3    8 1
   7    4    5 2
   8    5    6 1
   9    6   46 1
  10    6   47 1
  11    7   15 ar
  12    7   19 ar
  13    8    9 1
  14    8   48 1
  15    9   10 ar
  16    9   11 ar
  17   10   14 ar
  18   10   49 1
  19   11   12 ar
  20   11   50 1
  21   12   13 ar
  22   12   51 1
  23   13   14 ar
  24   13   20 1
  25   14   27 1
  26   15   16 ar
  27   16   17 ar
  28   17   18 ar
  29   17   34 1
  30   18   19 ar
  31   18   37 1
  32   19   52 1
  33   20   21 1
  34   20   25 1
  35   21   22 1
  36   21   53 1
  37   21   54 1
  38   22   23 1
  39   22   55 1
  40   22   56 1
  41   23   24 1
  42   23   26 1
  43   23   57 1
  44   24   25 1
  45   24   58 1
  46   24   59 1
  47   25   60 1
  48   25   61 1
  49   26   28 1
  50   26   29 1
  51   28   32 1
  52   28   62 1
  53   28   63 1
  54   29   30 1
  55   29   64 1
  56   29   65 1
  57   30   31 1
  58   30   66 1
  59   30   67 1
  60   31   32 1
  61   31   33 1
  62   32   68 1
  63   32   69 1
  64   33   70 1
  65   33   71 1
  66   33   72 1
  67   34   35 ar
  68   34   38 ar
  69   35   36 1
  70   35   41 ar
  71   36   37 1
  72   37   42 1
  73   37   45 1
  74   38   39 ar
  75   38   73 1
  76   39   40 ar
  77   39   74 1
  78   40   41 ar
  79   40   75 1
  80   41   76 1
  81   42   43 1
  82   42   77 1
  83   42   78 1
  84   43   44 1
  85   43   79 1
  86   43   80 1
  87   44   45 1
  88   44   81 1
  89   44   82 1
  90   45   83 1
  91   45   84 1

#	End of record

