#	Name: ASD01914353
#	Creating user name:	WinNT
#	Creation time:	15. 06. 2019 20:03

#	Modifying user name:	WinNT
#	Modification time:	15. 06. 2019 20:03

#	Program:	/corina/corina34_cracker 3.40 0067  02.08.2006

@<TRIPOS>MOLECULE
ASD01914353
  35   37    0    0    0
SMALL
NO_CHARGES


@<TRIPOS>ATOM
   1 C1            -0.0181     1.3617     0.0136 C.2     
   2 N2            -0.0032     0.0068    -0.0028 N.pl3   
   3 C3            -1.2156    -0.8180     0.0059 C.3     
   4 C4            -2.3916     0.0623     0.4473 C.3     
   5 N5            -2.4049     1.3036    -0.3396 N.3     
   6 C6            -1.2833     2.1827     0.0325 C.3     
   7 C7             1.2577     1.7888     0.0039 C.2     
   8 C8             2.0871     0.6596    -0.0215 C.2     
   9 N9             1.3271    -0.4087    -0.0263 N.2     
  10 C10            3.5940     0.6713    -0.0406 C.3     
  11 O11            4.0616     2.0154     0.0886 O.3     
  12 C12            5.2939     2.2908    -0.4138 C.ar    
  13 C13            6.0837     1.2674    -0.9173 C.ar    
  14 C14            7.3358     1.5500    -1.4279 C.ar    
  15 C15            7.8021     2.8516    -1.4374 C.ar    
  16 C16            5.7620     3.5967    -0.4293 C.ar    
  17 C17            7.0171     3.8734    -0.9357 C.ar    
  18 C18            4.1252    -0.1676     1.1235 C.3     
  19 H19           -1.4029    -1.2069    -0.9950 H       
  20 H20           -1.0926    -1.6449     0.7053 H       
  21 H21           -3.3263    -0.4761     0.2908 H       
  22 H22           -2.2863     0.3045     1.5048 H       
  23 H23           -2.3930     1.1048    -1.3287 H       
  24 H24           -1.4445     2.5814     1.0341 H       
  25 H25           -1.2046     3.0019    -0.6823 H       
  26 H26            1.5843     2.8182     0.0136 H       
  27 H27            3.9487     0.2520    -0.9821 H       
  28 H28            5.7200     0.2505    -0.9098 H       
  29 H29            7.9511     0.7536    -1.8196 H       
  30 H30            8.7813     3.0706    -1.8370 H       
  31 H31            5.1473     4.3958    -0.0420 H       
  32 H32            7.3838     4.8892    -0.9439 H       
  33 H33            3.7685    -1.1929     1.0250 H       
  34 H34            5.2151    -0.1592     1.1097 H       
  35 H35            3.7705     0.2516     2.0650 H       
@<TRIPOS>BOND
   1    1    2 1
   2    1    7 2
   3    1    6 1
   4    2    3 1
   5    2    9 1
   6    3    4 1
   7    3   19 1
   8    3   20 1
   9    4    5 1
  10    4   21 1
  11    4   22 1
  12    5    6 1
  13    5   23 1
  14    6   24 1
  15    6   25 1
  16    7    8 1
  17    7   26 1
  18    8    9 2
  19    8   10 1
  20   10   11 1
  21   10   18 1
  22   10   27 1
  23   11   12 1
  24   12   13 ar
  25   12   16 ar
  26   13   14 ar
  27   13   28 1
  28   14   15 ar
  29   14   29 1
  30   15   17 ar
  31   15   30 1
  32   16   17 ar
  33   16   31 1
  34   17   32 1
  35   18   33 1
  36   18   34 1
  37   18   35 1

#	End of record

