#	Name: ASD02039154
#	Creating user name:	WinNT
#	Creation time:	15. 06. 2019 20:17

#	Modifying user name:	WinNT
#	Modification time:	15. 06. 2019 20:17

#	Program:	/corina/corina34_cracker 3.40 0067  02.08.2006

@<TRIPOS>MOLECULE
ASD02039154
  42   45    0    0    0
SMALL
NO_CHARGES


@<TRIPOS>ATOM
   1 N1            -0.0423     1.3702    -0.1206 N.2     
   2 C2            -0.0047     0.0651    -0.0761 C.2     
   3 N3             1.2925    -0.3005    -0.1574 N.2     
   4 C4             1.9688     0.8182    -0.2473 C.2     
   5 O5             1.0810     1.8170    -0.2187 O.3     
   6 C6             3.4654     0.9533    -0.3609 C.3     
   7 O7             3.7818     1.9097    -1.3745 O.3     
   8 C8             4.9969     1.7950    -1.9736 C.ar    
   9 N9            -1.0961    -0.7877     0.0348 N.pl3   
  10 C10           -2.3831    -0.2609     0.1764 C.ar    
  11 C11           -2.6993     0.9659    -0.3929 C.ar    
  12 C12           -3.9728     1.4844    -0.2513 C.ar    
  13 C13           -4.9323     0.7824     0.4569 C.ar    
  14 C14           -4.6198    -0.4399     1.0256 C.ar    
  15 C15           -3.3497    -0.9661     0.8818 C.ar    
  16 C16            5.3236     2.6259    -3.0424 C.ar    
  17 C17            6.5501     2.5242    -3.6613 C.ar    
  18 C18            7.4755     1.5848    -3.2194 C.ar    
  19 C19            7.1494     0.7429    -2.1393 C.ar    
  20 C20            5.9030     0.8593    -1.5158 C.ar    
  21 N21            8.7092     1.4667    -3.8268 N.am    
  22 C22            9.6051     0.5587    -3.4020 C.2     
  23 C23            9.3267    -0.3086    -2.3241 C.2     
  24 C24            8.1327    -0.2422    -1.6850 C.2     
  25 O25           10.6850     0.4825    -3.9623 O.2     
  26 Cl26          -5.8264    -1.3170     1.9137 Cl      
  27 Cl27          -4.3686     3.0180    -0.9620 Cl      
  28 C28            4.0384     1.4212     0.9784 C.3     
  29 H29            3.8984    -0.0117    -0.6240 H       
  30 H30           -0.9649    -1.7485     0.0139 H       
  31 H31           -1.9507     1.5143    -0.9454 H       
  32 H32           -5.9266     1.1894     0.5664 H       
  33 H33           -3.1064    -1.9200     1.3258 H       
  34 H34            4.6083     3.3568    -3.3897 H       
  35 H35            6.7928     3.1734    -4.4896 H       
  36 H36            5.6479     0.2161    -0.6865 H       
  37 H37            8.9330     2.0469    -4.5712 H       
  38 H38           10.0675    -1.0275    -2.0069 H       
  39 H39            7.9118    -0.9017    -0.8587 H       
  40 H40            3.6054     2.3863     1.2416 H       
  41 H41            3.7970     0.6918     1.7516 H       
  42 H42            5.1209     1.5190     0.8963 H       
@<TRIPOS>BOND
   1    1    2 2
   2    1    5 1
   3    2    3 1
   4    2    9 1
   5    3    4 2
   6    4    5 1
   7    4    6 1
   8    6    7 1
   9    6   28 1
  10    6   29 1
  11    7    8 1
  12    8   16 ar
  13    8   20 ar
  14    9   10 1
  15    9   30 1
  16   10   11 ar
  17   10   15 ar
  18   11   12 ar
  19   11   31 1
  20   12   13 ar
  21   12   27 1
  22   13   14 ar
  23   13   32 1
  24   14   15 ar
  25   14   26 1
  26   15   33 1
  27   16   17 ar
  28   16   34 1
  29   17   18 ar
  30   17   35 1
  31   18   19 ar
  32   18   21 1
  33   19   20 ar
  34   19   24 1
  35   20   36 1
  36   21   22 am
  37   21   37 1
  38   22   23 1
  39   22   25 2
  40   23   24 2
  41   23   38 1
  42   24   39 1
  43   28   40 1
  44   28   41 1
  45   28   42 1

#	End of record

