#	Name: ASD01238016
#	Creating user name:	WinNT
#	Creation time:	15. 06. 2019 19:15

#	Modifying user name:	WinNT
#	Modification time:	15. 06. 2019 19:15

#	Program:	/corina/corina34_cracker 3.40 0067  02.08.2006

@<TRIPOS>MOLECULE
ASD01238016
  46   47    0    0    0
SMALL
NO_CHARGES


@<TRIPOS>ATOM
   1 N1             0.6398    -1.0390     0.8105 N.1     
   2 C2             0.5535     0.0913     0.7372 C.1     
   3 C3             0.4447     1.5162     0.6448 C.ar    
   4 C4             1.5854     2.3142     0.7678 C.ar    
   5 C5             1.4795     3.6837     0.6783 C.ar    
   6 C6             0.2341     4.2752     0.4655 C.ar    
   7 C7            -0.9055     3.4798     0.3426 C.ar    
   8 C8            -0.8015     2.1097     0.4259 C.ar    
   9 C9             0.1213     5.7506     0.3703 C.ar    
  10 C10           -1.1215     6.3451     0.1577 C.ar    
  11 C11           -1.2203     7.7188     0.0699 C.ar    
  12 C12           -0.0891     8.5055     0.1924 C.ar    
  13 C13            1.1469     7.9211     0.4030 C.ar    
  14 C14            1.2570     6.5488     0.4987 C.ar    
  15 C15           -0.2037    10.0050     0.0956 C.3     
  16 C16            0.6488    10.5074    -1.0713 C.3     
  17 N17            0.4447    11.9482    -1.2405 N.am    
  18 S18            1.4896    12.8282    -2.1764 S.o2    
  19 O19            1.5308    12.1257    -3.4110 O.2     
  20 O20            0.9897    14.1565    -2.1057 O.2     
  21 C21            3.0827    12.7012    -1.3182 C.3     
  22 C22            4.1421    13.4903    -2.0901 C.3     
  23 C23            2.9483    13.2741     0.0941 C.3     
  24 C24            0.2896    10.6393     1.3977 C.3     
  25 H25            2.5496     1.8566     0.9333 H       
  26 H26            2.3608     4.3006     0.7732 H       
  27 H27           -1.8690     3.9390     0.1778 H       
  28 H28           -1.6838     1.4942     0.3303 H       
  29 H29           -2.0053     5.7318     0.0615 H       
  30 H30           -2.1826     8.1804    -0.0952 H       
  31 H31            2.0268     8.5403     0.4973 H       
  32 H32            2.2224     6.0936     0.6632 H       
  33 H33           -1.2453    10.2799    -0.0706 H       
  34 H34            1.7007    10.3113    -0.8636 H       
  35 H35            0.3561     9.9893    -1.9846 H       
  36 H36           -0.3025    12.3867    -0.8042 H       
  37 H37            3.3809    11.6545    -1.2588 H       
  38 H38            3.8439    14.5371    -2.1495 H       
  39 H39            5.0994    13.4140    -1.5744 H       
  40 H40            4.2379    13.0822    -3.0962 H       
  41 H41            2.2583    12.6589     0.6716 H       
  42 H42            3.9245    13.2781     0.5789 H       
  43 H43            2.5664    14.2935     0.0378 H       
  44 H44           -0.3178    10.2814     2.2290 H       
  45 H45            1.3312    10.3645     1.5639 H       
  46 H46            0.2067    11.7239     1.3276 H       
@<TRIPOS>BOND
   1    1    2 3
   2    2    3 1
   3    3    4 ar
   4    3    8 ar
   5    4    5 ar
   6    4   25 1
   7    5    6 ar
   8    5   26 1
   9    6    7 ar
  10    6    9 1
  11    7    8 ar
  12    7   27 1
  13    8   28 1
  14    9   10 ar
  15    9   14 ar
  16   10   11 ar
  17   10   29 1
  18   11   12 ar
  19   11   30 1
  20   12   13 ar
  21   12   15 1
  22   13   14 ar
  23   13   31 1
  24   14   32 1
  25   15   16 1
  26   15   24 1
  27   15   33 1
  28   16   17 1
  29   16   34 1
  30   16   35 1
  31   17   18 am
  32   17   36 1
  33   18   19 2
  34   18   20 2
  35   18   21 1
  36   21   22 1
  37   21   23 1
  38   21   37 1
  39   22   38 1
  40   22   39 1
  41   22   40 1
  42   23   41 1
  43   23   42 1
  44   23   43 1
  45   24   44 1
  46   24   45 1
  47   24   46 1

#	End of record

