#	Name: ASD01850067
#	Creating user name:	WinNT
#	Creation time:	15. 06. 2019 19:38

#	Modifying user name:	WinNT
#	Modification time:	15. 06. 2019 19:38

#	Program:	/corina/corina34_cracker 3.40 0067  02.08.2006

@<TRIPOS>MOLECULE
ASD01850067
  59   62    0    0    0
SMALL
NO_CHARGES


@<TRIPOS>ATOM
   1 C1             9.1304     2.7772     1.8219 C.ar    
   2 C2             9.1944     3.9334     1.0675 C.ar    
   3 C3             8.0316     4.5279     0.6135 C.ar    
   4 C4             6.8052     3.9657     0.9138 C.ar    
   5 C5             6.7412     2.8085     1.6677 C.ar    
   6 C6             7.9036     2.2150     2.1227 C.ar    
   7 C7             3.8456     2.4256     0.0067 C.3     
   8 N8             4.3469     2.9241     1.2898 N.am    
   9 C9             4.5785     3.1313    -1.1360 C.3     
  10 C10            3.8355     4.0524     1.8207 C.2     
  11 C11            4.4284     4.6284     3.0808 C.3     
  12 O12            2.8982     4.6043     1.2843 O.2     
  13 C13            3.9239     6.0603     3.2735 C.3     
  14 C14            4.0099     3.7727     4.2786 C.3     
  15 C15            4.6425     4.3409     5.5528 C.3     
  16 N16            4.2797     5.7599     5.6688 N.am    
  17 C17            4.5555     6.6544     4.5363 C.3     
  18 S18            3.5727     6.3399     7.0494 S.o2    
  19 C19            4.8709     6.8594     8.1215 C.ar    
  20 C20            5.3282     8.1435     8.0562 C.ar    
  21 C21            6.3590     8.5551     8.9085 C.ar    
  22 C22            6.9131     7.6400     9.8242 C.ar    
  23 C23            6.4255     6.3360     9.8682 C.ar    
  24 C24            5.4154     5.9593     9.0295 C.ar    
  25 C25            7.0710     9.8137     9.1049 C.2     
  26 N26            7.9507     9.6302    10.0477 N.2     
  27 N27            7.8867     8.3133    10.5147 N.pl3   
  28 O28            2.8666     7.5150     6.6755 O.2     
  29 O29            2.9522     5.2279     7.6801 O.2     
  30 C30            5.4040     2.1960     1.9960 C.3     
  31 C31            7.8338     0.9540     2.9450 C.3     
  32 H32           10.0389     2.3103     2.1727 H       
  33 H33           10.1527     4.3728     0.8328 H       
  34 H34            8.0816     5.4318     0.0246 H       
  35 H35            5.8969     4.4304     0.5598 H       
  36 H36            4.0193     1.3515    -0.0587 H       
  37 H37            2.7769     2.6261    -0.0685 H       
  38 H38            4.1352     2.8383    -2.0877 H       
  39 H39            4.4916     4.2107    -1.0117 H       
  40 H40            5.6309     2.8476    -1.1227 H       
  41 H41            5.5155     4.6341     3.0009 H       
  42 H42            4.2021     6.6635     2.4092 H       
  43 H43            2.8389     6.0527     3.3784 H       
  44 H44            2.9242     3.7866     4.3740 H       
  45 H45            4.3494     2.7476     4.1297 H       
  46 H46            4.2695     3.7962     6.4202 H       
  47 H47            5.7268     4.2444     5.4968 H       
  48 H48            5.6327     6.7466     4.3974 H       
  49 H49            4.1250     7.6363     4.7330 H       
  50 H50            4.8973     8.8381     7.3504 H       
  51 H51            6.8430     5.6254    10.5661 H       
  52 H52            5.0403     4.9472     9.0674 H       
  53 H53            6.8991    10.7331     8.5650 H       
  54 H54            8.4422     7.9371    11.2152 H       
  55 H55            5.3964     1.1516     1.6843 H       
  56 H56            5.2309     2.2558     3.0705 H       
  57 H57            7.7707     0.0911     2.2821 H       
  58 H58            8.7283     0.8730     3.5626 H       
  59 H59            6.9521     0.9859     3.5849 H       
@<TRIPOS>BOND
   1    1    2 ar
   2    1    6 ar
   3    1   32 1
   4    2    3 ar
   5    2   33 1
   6    3    4 ar
   7    3   34 1
   8    4    5 ar
   9    4   35 1
  10    5    6 ar
  11    5   30 1
  12    6   31 1
  13    7    8 1
  14    7    9 1
  15    7   36 1
  16    7   37 1
  17    8   10 am
  18    8   30 1
  19    9   38 1
  20    9   39 1
  21    9   40 1
  22   10   11 1
  23   10   12 2
  24   11   13 1
  25   11   14 1
  26   11   41 1
  27   13   17 1
  28   13   42 1
  29   13   43 1
  30   14   15 1
  31   14   44 1
  32   14   45 1
  33   15   16 1
  34   15   46 1
  35   15   47 1
  36   16   17 1
  37   16   18 am
  38   17   48 1
  39   17   49 1
  40   18   19 1
  41   18   28 2
  42   18   29 2
  43   19   20 ar
  44   19   24 ar
  45   20   21 ar
  46   20   50 1
  47   21   22 ar
  48   21   25 1
  49   22   23 ar
  50   22   27 1
  51   23   24 ar
  52   23   51 1
  53   24   52 1
  54   25   26 2
  55   25   53 1
  56   26   27 1
  57   27   54 1
  58   30   55 1
  59   30   56 1
  60   31   57 1
  61   31   58 1
  62   31   59 1

#	End of record

