#	Name: ASD01810948
#	Creating user name:	WinNT
#	Creation time:	15. 06. 2019 19:25

#	Modifying user name:	WinNT
#	Modification time:	15. 06. 2019 19:25

#	Program:	/corina/corina34_cracker 3.40 0067  02.08.2006

@<TRIPOS>MOLECULE
ASD01810948
  21   21    0    0    0
SMALL
NO_CHARGES


@<TRIPOS>ATOM
   1 C1            -0.0179     1.4724     0.0101 C.2     
   2 C2             0.0021    -0.0041     0.0020 C.ar    
   3 C3             1.2199    -0.6896    -0.0133 C.ar    
   4 C4             1.2308    -2.0702    -0.0209 C.ar    
   5 C5             0.0402    -2.7743    -0.0138 C.ar    
   6 C6            -1.1695    -2.1015     0.0009 C.ar    
   7 C7            -1.1955    -0.7218     0.0154 C.ar    
   8 O8             1.0257     2.0941     0.0035 O.2     
   9 O9            -1.1937     2.1301     0.0193 O.3     
  10 C10            0.0602    -4.2812    -0.0226 C.3     
  11 I11           -2.9652    -3.1805     0.0101 I       
  12 Br12           2.8485     0.2713    -0.0242 Br      
  13 C13           -1.1374     3.5810     0.0269 C.3     
  14 H14            2.1710    -2.6015    -0.0327 H       
  15 H15           -2.1400    -0.1984     0.0317 H       
  16 H16            0.0746    -4.6504     1.0029 H       
  17 H17           -0.8297    -4.6534    -0.5303 H       
  18 H18            0.9500    -4.6297    -0.5468 H       
  19 H19           -0.6056     3.9193     0.9162 H       
  20 H20           -0.6140     3.9290    -0.8637 H       
  21 H21           -2.1501     3.9839     0.0339 H       
@<TRIPOS>BOND
   1    1    2 1
   2    1    8 2
   3    1    9 1
   4    2    3 ar
   5    2    7 ar
   6    3    4 ar
   7    3   12 1
   8    4    5 ar
   9    4   14 1
  10    5    6 ar
  11    5   10 1
  12    6    7 ar
  13    6   11 1
  14    7   15 1
  15    9   13 1
  16   10   16 1
  17   10   17 1
  18   10   18 1
  19   13   19 1
  20   13   20 1
  21   13   21 1

#	End of record

