#	Name: ASD03090528
#	Creating user name:	WinNT
#	Creation time:	15. 06. 2019 20:29

#	Modifying user name:	WinNT
#	Modification time:	15. 06. 2019 20:29

#	Program:	/corina/corina34_cracker 3.40 0067  02.08.2006

@<TRIPOS>MOLECULE
ASD03090528
  39   42    0    0    0
SMALL
NO_CHARGES


@<TRIPOS>ATOM
   1 C1            -0.0187     1.5020     0.0192 C.2     
   2 C2             0.0008    -0.0048     0.0174 C.3     
   3 O3             1.0237     2.1221     0.0154 O.2     
   4 N4            -1.1946     2.1607     0.0195 N.am    
   5 N5             5.3293    -1.8139     0.2654 N.pl3   
   6 C6             5.4949    -1.8695     1.6226 C.2     
   7 C7             4.3653    -1.4850     2.2375 C.2     
   8 C8             3.3971    -1.1564     1.1884 C.ar    
   9 C9             2.0749    -0.7076     1.1939 C.ar    
  10 C10            1.4280    -0.4887     0.0106 C.ar    
  11 C11            2.0748    -0.7088    -1.1979 C.ar    
  12 C12            3.3787    -1.1518    -1.2265 C.ar    
  13 C13            4.0568    -1.3814    -0.0335 C.ar    
  14 C14           -2.1794     4.3022    -0.5320 C.ar    
  15 C15           -1.2153     3.5555     0.1328 C.ar    
  16 C16           -0.2700     4.2149     0.9140 C.ar    
  17 C17           -0.3318     5.5966     0.9954 C.ar    
  18 C18           -1.3215     6.2701     0.3043 C.ar    
  19 N19           -2.2023     5.6158    -0.4274 N.ar    
  20 C20           -1.3950     7.7730     0.3881 C.3     
  21 C21           -2.1523     8.3784     1.5717 C.3     
  22 C22           -0.6251     8.4559     1.5202 C.3     
  23 H23           -0.5044    -0.3758     0.9091 H       
  24 H24           -0.5121    -0.3738    -0.8708 H       
  25 H25           -2.0265     1.6681    -0.0589 H       
  26 H26            6.0085    -2.0414    -0.3886 H       
  27 H27            6.4002    -2.1774     2.1246 H       
  28 H28            4.2013    -1.4287     3.3035 H       
  29 H29            1.5651    -0.5351     2.1303 H       
  30 H30            1.5501    -0.5312    -2.1251 H       
  31 H31            3.8731    -1.3205    -2.1717 H       
  32 H32           -2.9149     3.8018    -1.1444 H       
  33 H33            0.4923     3.6630     1.4437 H       
  34 H34            0.3848     6.1412     1.5923 H       
  35 H35           -1.4540     8.2947    -0.5671 H       
  36 H36           -2.7092     9.2986     1.3953 H       
  37 H37           -2.5974     7.6896     2.2898 H       
  38 H38           -0.0655     7.8182     2.2045 H       
  39 H39           -0.1773     9.4272     1.3100 H       
@<TRIPOS>BOND
   1    1    2 1
   2    1    3 2
   3    1    4 am
   4    2   10 1
   5    2   23 1
   6    2   24 1
   7    4   15 1
   8    4   25 1
   9    5    6 1
  10    5   13 1
  11    5   26 1
  12    6    7 2
  13    6   27 1
  14    7    8 1
  15    7   28 1
  16    8    9 ar
  17    8   13 ar
  18    9   10 ar
  19    9   29 1
  20   10   11 ar
  21   11   12 ar
  22   11   30 1
  23   12   13 ar
  24   12   31 1
  25   14   15 ar
  26   14   19 ar
  27   14   32 1
  28   15   16 ar
  29   16   17 ar
  30   16   33 1
  31   17   18 ar
  32   17   34 1
  33   18   19 ar
  34   18   20 1
  35   20   21 1
  36   20   22 1
  37   20   35 1
  38   21   22 1
  39   21   36 1
  40   21   37 1
  41   22   38 1
  42   22   39 1

#	End of record

