#	Name: ASD02508005
#	Creating user name:	WinNT
#	Creation time:	15. 06. 2019 20:23

#	Modifying user name:	WinNT
#	Modification time:	15. 06. 2019 20:23

#	Program:	/corina/corina34_cracker 3.40 0067  02.08.2006

@<TRIPOS>MOLECULE
ASD02508005
  48   50    0    0    0
SMALL
NO_CHARGES


@<TRIPOS>ATOM
   1 N1            -0.0179     1.4654     0.0101 N.am    
   2 C2             0.0021    -0.0041     0.0020 C.3     
   3 C3            -0.8091    -0.5118     1.2005 C.3     
   4 N4            -2.1063     0.1789     1.2161 N.am    
   5 S5             1.3960     2.3276     0.0012 S.o2    
   6 C6             1.8252     2.6081    -1.6845 C.ar    
   7 C7             1.3694     3.7423    -2.3348 C.ar    
   8 O8             1.0932     3.6005     0.5554 O.2     
   9 O9             2.3943     1.4665     0.5315 O.2     
  10 C10            2.6228     1.6971    -2.3560 C.ar    
  11 C11            2.9611     1.9164    -3.6797 C.ar    
  12 C12            2.5007     3.0496    -4.3339 C.ar    
  13 C13            1.7061     3.9641    -3.6585 C.ar    
  14 S14           -3.5201    -0.6832     1.2250 S.o2    
  15 C15           -3.9497    -0.9633     2.9107 C.ar    
  16 O16           -4.5183     0.1776     0.6941 O.2     
  17 C17           -4.7406    -0.0515     3.5814 C.ar    
  18 O18           -3.2172    -1.9564     0.6713 O.2     
  19 C19           -5.0789    -0.2731     4.9106 C.ar    
  20 C20           -4.6199    -1.4117     5.5602 C.ar    
  21 C21           -3.8291    -2.3197     4.8833 C.ar    
  22 C22           -3.4991    -2.0989     3.5589 C.ar    
  23 N23           -5.8783     0.6474     5.5922 N.pl3   
  24 F24            0.5951     4.6326    -1.6767 F       
  25 F25            3.0714     0.5937    -1.7184 F       
  26 C26           -2.1262     1.6484     1.2242 C.3     
  27 C27           -1.3150     2.1561     0.0200 C.3     
  28 O28            2.8324     3.2664    -5.6338 O.3     
  29 C29            2.3230     4.4540    -6.2440 C.3     
  30 H30           -0.4431    -0.3709    -0.9228 H       
  31 H31            1.0305    -0.3564     0.0807 H       
  32 H32           -0.9678    -1.5860     1.1062 H       
  33 H33           -0.2701    -0.2988     2.1237 H       
  34 H34            3.5835     1.2058    -4.2032 H       
  35 H35            1.3467     4.8467    -4.1668 H       
  36 H36           -5.0955     0.8330     3.0735 H       
  37 H37           -4.8807    -1.5868     6.5935 H       
  38 H38           -3.4719    -3.2052     5.3878 H       
  39 H39           -2.8809    -2.8106     3.0319 H       
  40 H40           -6.1980     1.4423     5.1376 H       
  41 H41           -6.1138     0.4916     6.5202 H       
  42 H42           -3.1547     2.0007     1.1455 H       
  43 H43           -1.6810     2.0152     2.1490 H       
  44 H44           -1.1556     3.2304     0.1131 H       
  45 H45           -1.8562     1.9426    -0.9018 H       
  46 H46            2.6853     5.3262    -5.6999 H       
  47 H47            2.6617     4.5048    -7.2788 H       
  48 H48            1.2335     4.4367    -6.2188 H       
@<TRIPOS>BOND
   1    1    2 1
   2    1    5 am
   3    1   27 1
   4    2    3 1
   5    2   30 1
   6    2   31 1
   7    3    4 1
   8    3   32 1
   9    3   33 1
  10    4   14 am
  11    4   26 1
  12    5    6 1
  13    5    9 2
  14    5    8 2
  15    6    7 ar
  16    6   10 ar
  17    7   24 1
  18    7   13 ar
  19   10   11 ar
  20   10   25 1
  21   11   12 ar
  22   11   34 1
  23   12   13 ar
  24   12   28 1
  25   13   35 1
  26   14   15 1
  27   14   16 2
  28   14   18 2
  29   15   17 ar
  30   15   22 ar
  31   17   19 ar
  32   17   36 1
  33   19   20 ar
  34   19   23 1
  35   20   21 ar
  36   20   37 1
  37   21   22 ar
  38   21   38 1
  39   22   39 1
  40   23   40 1
  41   23   41 1
  42   26   27 1
  43   26   42 1
  44   26   43 1
  45   27   44 1
  46   27   45 1
  47   28   29 1
  48   29   46 1
  49   29   47 1
  50   29   48 1

#	End of record

