#	Name: ASD05430590
#	Creating user name:	WinNT
#	Creation time:	15. 06. 2019 21:00

#	Modifying user name:	WinNT
#	Modification time:	15. 06. 2019 21:00

#	Program:	/corina/corina34_cracker 3.40 0067  02.08.2006

@<TRIPOS>MOLECULE
ASD05430590
  36   38    0    0    0
SMALL
NO_CHARGES


@<TRIPOS>ATOM
   1 C1            -0.0167     1.3796     0.0096 C.ar    
   2 C2             0.0021    -0.0041     0.0020 C.ar    
   3 C3             1.1719     2.0811     0.0020 C.ar    
   4 C4             2.3967     1.4054     0.0011 C.ar    
   5 C5             2.4019     0.0192    -0.0133 C.ar    
   6 C6             1.2093    -0.6785    -0.0130 C.ar    
   7 C7             1.2242    -2.1854    -0.0285 C.3     
   8 C8             1.9583    -2.7009     1.2110 C.3     
   9 C9            -0.2132    -2.7096    -0.0247 C.3     
  10 C10            1.9425    -2.6754    -1.2873 C.3     
  11 N11            1.2122     3.4803    -0.0276 N.pl3   
  12 C12            2.3843     4.1338    -0.3148 C.2     
  13 C13            3.6512     3.3685    -0.6088 C.3     
  14 O14            3.5671     2.0925     0.0354 O.3     
  15 C15            0.2641     4.4230     0.1847 C.2     
  16 C16            0.8681     5.6218     0.0265 C.2     
  17 N17            2.1611     5.4064    -0.2771 N.2     
  18 C18            0.2067     6.9687     0.1661 C.3     
  19 H19           -0.9582     1.9087     0.0170 H       
  20 H20           -0.9256    -0.5570     0.0081 H       
  21 H21            3.3398    -0.5162    -0.0250 H       
  22 H22            1.4465    -2.3518     2.1078 H       
  23 H23            1.9690    -3.7908     1.1998 H       
  24 H24            2.9823    -2.3274     1.2083 H       
  25 H25           -0.7362    -2.3424    -0.9077 H       
  26 H26           -0.2024    -3.7995    -0.0360 H       
  27 H27           -0.7250    -2.3606     0.8721 H       
  28 H28            2.9665    -2.3019    -1.2900 H       
  29 H29            1.9533    -3.7653    -1.2985 H       
  30 H30            1.4195    -2.3081    -2.1703 H       
  31 H31            3.7553     3.2303    -1.6849 H       
  32 H32            4.5100     3.9183    -0.2238 H       
  33 H33           -0.7730     4.2508     0.4320 H       
  34 H34            0.2841     7.3061     1.1997 H       
  35 H35            0.7017     7.6862    -0.4883 H       
  36 H36           -0.8441     6.8881    -0.1120 H       
@<TRIPOS>BOND
   1    1    2 ar
   2    1    3 ar
   3    1   19 1
   4    2    6 ar
   5    2   20 1
   6    3    4 ar
   7    3   11 1
   8    4    5 ar
   9    4   14 1
  10    5    6 ar
  11    5   21 1
  12    6    7 1
  13    7    8 1
  14    7    9 1
  15    7   10 1
  16    8   22 1
  17    8   23 1
  18    8   24 1
  19    9   25 1
  20    9   26 1
  21    9   27 1
  22   10   28 1
  23   10   29 1
  24   10   30 1
  25   11   12 1
  26   11   15 1
  27   12   13 1
  28   12   17 2
  29   13   14 1
  30   13   31 1
  31   13   32 1
  32   15   16 2
  33   15   33 1
  34   16   17 1
  35   16   18 1
  36   18   34 1
  37   18   35 1
  38   18   36 1

#	End of record

