#	Name: ASD02030260
#	Creating user name:	WinNT
#	Creation time:	15. 06. 2019 20:14

#	Modifying user name:	WinNT
#	Modification time:	15. 06. 2019 20:14

#	Program:	/corina/corina34_cracker 3.40 0067  02.08.2006

@<TRIPOS>MOLECULE
ASD02030260
  52   56    0    0    0
SMALL
NO_CHARGES


@<TRIPOS>ATOM
   1 N1             0.1978     2.0812    -0.2182 N.am    
   2 C2             0.5168     0.6491    -0.3033 C.3     
   3 C3            -0.1393    -0.0704     0.8817 C.3     
   4 N4            -1.5490     0.3380     0.9570 N.am    
   5 C5            -1.8680     1.7701     1.0421 C.3     
   6 C6            -1.2117     2.4893    -0.1372 C.3     
   7 C7             1.1806     3.0034    -0.2088 C.2     
   8 C8             2.5942     2.5765    -0.1392 C.2     
   9 N9             3.6454     3.3571    -0.2683 N.2     
  10 N10            3.0326     1.3221     0.0731 N.2     
  11 C11            4.3407     1.3605     0.0643 C.2     
  12 N12            4.7095     2.6401    -0.1502 N.pl3   
  13 C13            6.0273     3.1102    -0.2311 C.ar    
  14 O14            0.9046     4.1863    -0.2577 O.2     
  15 C15           -2.5318    -0.5842     0.9477 C.2     
  16 C16           -2.2060    -2.0033     0.7470 C.2     
  17 O17           -3.6885    -0.2421     1.1055 O.2     
  18 C18            6.2721     4.4578    -0.4568 C.ar    
  19 C19            7.5732     4.9184    -0.5361 C.ar    
  20 C20            8.6302     4.0371    -0.3911 C.ar    
  21 C21            8.3882     2.6942    -0.1667 C.ar    
  22 C22            7.0906     2.2297    -0.0799 C.ar    
  23 Cl23           7.8813     6.6034    -0.8183 Cl      
  24 O24           -0.9579    -2.5135     0.6939 O.3     
  25 C25           -1.3244     2.3402     2.3538 C.3     
  26 C26           -3.1157    -2.9998     0.5927 C.2     
  27 C27           -2.3439    -4.2307     0.4252 C.ar    
  28 C28           -0.9923    -3.8470     0.5003 C.ar    
  29 C29           -2.6821    -5.5720     0.2280 C.ar    
  30 C30           -1.6841    -6.5140     0.1043 C.ar    
  31 C31           -0.3487    -6.1332     0.1757 C.ar    
  32 C32           -0.0025    -4.8147     0.3745 C.ar    
  33 F33           -2.0043    -7.8126    -0.0866 F       
  34 H34            0.1295     0.2429    -1.2377 H       
  35 H35            1.5973     0.5119    -0.2618 H       
  36 H36           -0.0781    -1.1486     0.7344 H       
  37 H37            0.3711     0.2047     1.8048 H       
  38 H38           -2.9485     1.9073     1.0007 H       
  39 H39           -1.2736     3.5673     0.0114 H       
  40 H40           -1.7200     2.2152    -1.0616 H       
  41 H41            5.0045     0.5205     0.2064 H       
  42 H42            5.4472     5.1455    -0.5707 H       
  43 H43            9.6459     4.3987    -0.4537 H       
  44 H44            9.2151     2.0086    -0.0546 H       
  45 H45            6.9027     1.1808     0.0957 H       
  46 H46           -0.2430     2.2075     2.3871 H       
  47 H47           -1.5621     3.4022     2.4145 H       
  48 H48           -1.7807     1.8170     3.1941 H       
  49 H49           -4.1914    -2.9030     0.5939 H       
  50 H50           -3.7191    -5.8686     0.1731 H       
  51 H51            0.4256    -6.8798     0.0778 H       
  52 H52            1.0386    -4.5322     0.4280 H       
@<TRIPOS>BOND
   1    1    2 1
   2    1    7 am
   3    1    6 1
   4    2    3 1
   5    2   34 1
   6    2   35 1
   7    3    4 1
   8    3   36 1
   9    3   37 1
  10    4    5 1
  11    4   15 am
  12    5    6 1
  13    5   25 1
  14    5   38 1
  15    6   39 1
  16    6   40 1
  17    7    8 1
  18    7   14 2
  19    8    9 2
  20    8   10 1
  21    9   12 1
  22   10   11 2
  23   11   12 1
  24   11   41 1
  25   12   13 1
  26   13   18 ar
  27   13   22 ar
  28   15   16 1
  29   15   17 2
  30   16   26 2
  31   16   24 1
  32   18   19 ar
  33   18   42 1
  34   19   20 ar
  35   19   23 1
  36   20   21 ar
  37   20   43 1
  38   21   22 ar
  39   21   44 1
  40   22   45 1
  41   24   28 1
  42   25   46 1
  43   25   47 1
  44   25   48 1
  45   26   27 1
  46   26   49 1
  47   27   28 ar
  48   27   29 ar
  49   28   32 ar
  50   29   30 ar
  51   29   50 1
  52   30   31 ar
  53   30   33 1
  54   31   32 ar
  55   31   51 1
  56   32   52 1

#	End of record

