#	Name: ASD05740068
#	Creating user name:	WinNT
#	Creation time:	15. 06. 2019 21:02

#	Modifying user name:	WinNT
#	Modification time:	15. 06. 2019 21:02

#	Program:	/corina/corina34_cracker 3.40 0067  02.08.2006

@<TRIPOS>MOLECULE
ASD05740068
  51   52    0    0    0
SMALL
NO_CHARGES


@<TRIPOS>ATOM
   1 C1            -0.0166     1.3766     0.0096 C.ar    
   2 C2            -3.1363     0.9950     1.3313 C.3     
   3 C3            -2.9664    -0.4689     3.4031 C.2     
   4 C4            -2.4389    -1.5777     4.0404 C.2     
   5 C5            -2.5816    -0.2034     2.0575 C.2     
   6 C6            -1.7110    -1.0393     1.4337 C.2     
   7 C7            -1.2035    -2.1519     2.1238 C.2     
   8 O8            -1.5726    -2.3910     3.3899 O.3     
   9 C9            -1.2931    -0.7744     0.0102 C.3     
  10 C10            0.0021    -0.0041     0.0020 C.ar    
  11 C11            1.2082    -0.6808    -0.0136 C.ar    
  12 O12           -0.4217    -2.9049     1.5679 O.2     
  13 C13            1.1779     2.0860     0.0020 C.ar    
  14 C14            2.3873     1.4033    -0.0132 C.ar    
  15 C15            2.3988     0.0221    -0.0207 C.ar    
  16 N16            1.1626     3.4826     0.0092 N.am    
  17 S17            2.1576     4.3268    -1.0104 S.o2    
  18 O18            1.8839     5.7036    -0.7893 O.2     
  19 O19            3.4526     3.7593    -0.8683 O.2     
  20 S20           -3.0692    -1.6791     5.6809 S.3     
  21 C21           -4.0292    -0.2271     5.4742 C.2     
  22 C22           -3.8783     0.2755     4.2595 C.2     
  23 O23           -4.8278     0.3089     6.4337 O.3     
  24 N24            1.6691     3.9956    -2.5576 N.am    
  25 C25            0.3450     4.4242    -3.0153 C.3     
  26 C26           -4.8764    -0.3691     7.6906 C.3     
  27 H27           -0.9588     1.9045     0.0169 H       
  28 H28           -3.8121     1.5389     1.9913 H       
  29 H29           -2.3176     1.6488     1.0308 H       
  30 H30           -3.6805     0.6640     0.4468 H       
  31 H31           -1.1555    -1.7221    -0.5104 H       
  32 H32           -2.0653    -0.1923    -0.4928 H       
  33 H33            1.2200    -1.7607    -0.0199 H       
  34 H34            3.3177     1.9517    -0.0191 H       
  35 H35            3.3389    -0.5094    -0.0322 H       
  36 H36            0.5691     3.9581     0.6114 H       
  37 H37           -4.3854     1.1710     3.9319 H       
  38 H38            2.2596     3.5178    -3.1609 H       
  39 H39            0.2028     4.1195    -4.0521 H       
  40 H40           -0.4215     3.9628    -2.3926 H       
  41 H41            0.2687     5.5090    -2.9416 H       
  42 H42           -5.2401    -1.3857     7.5412 H       
  43 H43           -3.8773    -0.4008     8.1252 H       
  44 H44           -5.5490     0.1620     8.3642 H       
  45 C45            8.9798    13.3729    15.2325 C.3     
  46 N46            8.9996    11.9081    15.2244 N.2     
  47 C47            9.5403    11.2955    14.2784 C.1     
  48 O48           10.0629    10.7036    13.3642 O.2     
  49 H49           10.0023    13.7502    15.2247 H       
  50 H50            8.4526    13.7340    14.3494 H       
  51 H51            8.4696    13.7244    16.1293 H       
@<TRIPOS>BOND
   1    1   10 ar
   2    1   13 ar
   3    1   27 1
   4    2    5 1
   5    2   28 1
   6    2   29 1
   7    2   30 1
   8    3    4 2
   9    3    5 1
  10    3   22 1
  11    4   20 1
  12    4    8 1
  13    5    6 2
  14    6    7 1
  15    6    9 1
  16    7    8 1
  17    7   12 2
  18    9   10 1
  19    9   31 1
  20    9   32 1
  21   10   11 ar
  22   11   15 ar
  23   11   33 1
  24   13   14 ar
  25   13   16 1
  26   14   15 ar
  27   14   34 1
  28   15   35 1
  29   16   17 am
  30   16   36 1
  31   17   18 2
  32   17   19 2
  33   17   24 am
  34   20   21 1
  35   21   22 2
  36   21   23 1
  37   22   37 1
  38   23   26 1
  39   24   25 1
  40   24   38 1
  41   25   39 1
  42   25   40 1
  43   25   41 1
  44   26   42 1
  45   26   43 1
  46   26   44 1
  47   45   46 1
  48   45   49 1
  49   45   50 1
  50   45   51 1
  51   46   47 2
  52   47   48 2

#	End of record

