#	Name: ASD04230042
#	Creating user name:	WinNT
#	Creation time:	15. 06. 2019 20:48

#	Modifying user name:	WinNT
#	Modification time:	15. 06. 2019 20:48

#	Program:	/corina/corina34_cracker 3.40 0067  02.08.2006

@<TRIPOS>MOLECULE
ASD04230042
  34   36    0    0    0
SMALL
NO_CHARGES


@<TRIPOS>ATOM
   1 N1            -0.0169     1.3927     0.0097 N.pl3   
   2 C2             0.0021    -0.0041     0.0020 C.ar    
   3 C3             1.2125    -0.6815    -0.0132 C.ar    
   4 C4             1.2262    -2.0737    -0.0203 C.ar    
   5 C5             0.0235    -2.7790    -0.0121 C.ar    
   6 C6            -1.1768    -2.0976     0.0025 C.ar    
   7 C7            -1.1916    -0.7155     0.0154 C.ar    
   8 C8             2.5216    -4.1872    -0.0440 C.ar    
   9 C9             2.5170    -2.8047    -0.0370 C.ar    
  10 C10            3.7233    -2.0866    -0.0461 C.ar    
  11 C11            4.9183    -2.7321    -0.0615 C.ar    
  12 C12            4.9577    -4.1380    -0.0685 C.ar    
  13 C13            6.1808    -4.8279    -0.0850 C.ar    
  14 C14            6.1868    -6.1938    -0.0919 C.ar    
  15 C15            4.9899    -6.9171    -0.0832 C.ar    
  16 C16            3.7889    -6.2797    -0.0673 C.ar    
  17 C17            3.7451    -4.8736    -0.0594 C.ar    
  18 O18            7.3717    -6.8588    -0.1078 O.3     
  19 C19            7.3142    -8.2866    -0.1143 C.3     
  20 H20            0.8165     1.8891     0.0044 H       
  21 H21           -0.8634     1.8662     0.0163 H       
  22 H22            2.1414    -0.1307    -0.0198 H       
  23 H23            0.0311    -3.8590    -0.0176 H       
  24 H24           -2.1072    -2.6460     0.0085 H       
  25 H25           -2.1334    -0.1871     0.0314 H       
  26 H26            1.5906    -4.7345    -0.0329 H       
  27 H27            3.7009    -1.0068    -0.0412 H       
  28 H28            5.8380    -2.1659    -0.0687 H       
  29 H29            7.1122    -4.2811    -0.0925 H       
  30 H30            5.0198    -7.9966    -0.0896 H       
  31 H31            2.8722    -6.8507    -0.0608 H       
  32 H32            8.3264    -8.6909    -0.1270 H       
  33 H33            6.7956    -8.6335     0.7796 H       
  34 H34            6.7767    -8.6246    -1.0003 H       
@<TRIPOS>BOND
   1    1    2 1
   2    1   20 1
   3    1   21 1
   4    2    3 ar
   5    2    7 ar
   6    3    4 ar
   7    3   22 1
   8    4    5 ar
   9    4    9 1
  10    5    6 ar
  11    5   23 1
  12    6    7 ar
  13    6   24 1
  14    7   25 1
  15    8    9 ar
  16    8   17 ar
  17    8   26 1
  18    9   10 ar
  19   10   11 ar
  20   10   27 1
  21   11   12 ar
  22   11   28 1
  23   12   13 ar
  24   12   17 ar
  25   13   14 ar
  26   13   29 1
  27   14   15 ar
  28   14   18 1
  29   15   16 ar
  30   15   30 1
  31   16   17 ar
  32   16   31 1
  33   18   19 1
  34   19   32 1
  35   19   33 1
  36   19   34 1

#	End of record

