#	Name: ASD01913702
#	Creating user name:	WinNT
#	Creation time:	15. 06. 2019 20:02

#	Modifying user name:	WinNT
#	Modification time:	15. 06. 2019 20:02

#	Program:	/corina/corina34_cracker 3.40 0067  02.08.2006

@<TRIPOS>MOLECULE
ASD01913702
  47   48    0    0    0
SMALL
NO_CHARGES


@<TRIPOS>ATOM
   1 C1            -0.0184     1.5028     0.0103 C.ar    
   2 C2             0.0021    -0.0041     0.0020 C.3     
   3 O3             0.0214    -0.4876     1.3466 O.3     
   4 C4             0.0413    -1.8317     1.5167 C.ar    
   5 N5             0.0420    -2.6238     0.4557 N.ar    
   6 C6             0.0610    -3.9354     0.5691 C.ar    
   7 C7             0.0807    -4.5400     1.8264 C.ar    
   8 C8             0.0805    -3.7291     2.9711 C.ar    
   9 C9             0.0664    -2.3598     2.8041 C.ar    
  10 C10            0.1009    -6.0108     1.9502 C.2     
  11 N11            0.1004    -6.7803     0.8437 N.am    
  12 O12            0.1179    -6.5281     3.0503 O.2     
  13 C13            1.1689     2.2096     0.0028 C.ar    
  14 C14            1.1498     3.5943     0.0104 C.ar    
  15 C15           -0.0591     4.2687     0.0255 C.ar    
  16 C16           -1.2454     3.5595     0.0331 C.ar    
  17 C17           -1.2252     2.1775     0.0197 C.ar    
  18 F18            2.3100     4.2864     0.0035 F       
  19 C19            0.1205    -8.2400     0.9665 C.3     
  20 C20           -0.4929    -8.8658    -0.2876 C.3     
  21 C21            0.3176    -8.4462    -1.5156 C.3     
  22 C22           -0.4720   -10.3903    -0.1593 C.3     
  23 C23           -1.9378    -8.3868    -0.4422 C.3     
  24 C24            1.5653    -8.7189     1.1210 C.3     
  25 H25           -0.8878    -0.3767    -0.5053 H       
  26 H26            0.8920    -0.3525    -0.5222 H       
  27 H27            0.0609    -4.5492    -0.3196 H       
  28 H28            0.0954    -4.1660     3.9587 H       
  29 H29            0.0662    -1.7049     3.6629 H       
  30 H30            0.0868    -6.3676    -0.0341 H       
  31 H31            2.1114     1.6824    -0.0087 H       
  32 H32           -0.0752     5.3486     0.0319 H       
  33 H33           -2.1887     4.0855     0.0449 H       
  34 H34           -2.1527     1.6242     0.0252 H       
  35 H35           -0.4569    -8.5389     1.8414 H       
  36 H36            1.3469    -8.7874    -1.4056 H       
  37 H37           -0.1194    -8.8920    -2.4091 H       
  38 H38            0.3026    -7.3601    -1.6070 H       
  39 H39           -1.0494   -10.6892     0.7155 H       
  40 H40           -0.9090   -10.8361    -1.0528 H       
  41 H41            0.5574   -10.7315    -0.0493 H       
  42 H42           -1.9527    -7.3008    -0.5336 H       
  43 H43           -2.3748    -8.8327    -1.3356 H       
  44 H44           -2.5152    -8.6858     0.4327 H       
  45 H45            2.0024    -8.2731     2.0145 H       
  46 H46            1.5803    -9.8050     1.2124 H       
  47 H47            2.1427    -8.4200     0.2462 H       
@<TRIPOS>BOND
   1    1    2 1
   2    1   13 ar
   3    1   17 ar
   4    2    3 1
   5    2   25 1
   6    2   26 1
   7    3    4 1
   8    4    5 ar
   9    4    9 ar
  10    5    6 ar
  11    6    7 ar
  12    6   27 1
  13    7    8 ar
  14    7   10 1
  15    8    9 ar
  16    8   28 1
  17    9   29 1
  18   10   11 am
  19   10   12 2
  20   11   19 1
  21   11   30 1
  22   13   14 ar
  23   13   31 1
  24   14   15 ar
  25   14   18 1
  26   15   16 ar
  27   15   32 1
  28   16   17 ar
  29   16   33 1
  30   17   34 1
  31   19   20 1
  32   19   24 1
  33   19   35 1
  34   20   21 1
  35   20   22 1
  36   20   23 1
  37   21   36 1
  38   21   37 1
  39   21   38 1
  40   22   39 1
  41   22   40 1
  42   22   41 1
  43   23   42 1
  44   23   43 1
  45   23   44 1
  46   24   45 1
  47   24   46 1
  48   24   47 1

#	End of record

