#	Name: ASD04882014
#	Creating user name:	WinNT
#	Creation time:	15. 06. 2019 20:53

#	Modifying user name:	WinNT
#	Modification time:	15. 06. 2019 20:53

#	Program:	/corina/corina34_cracker 3.40 0067  02.08.2006

@<TRIPOS>MOLECULE
ASD04882014
  71   75    0    0    0
SMALL
NO_CHARGES


@<TRIPOS>ATOM
   1 C1            -0.7144     2.6799     2.0386 C.ar    
   2 C2            -0.7537     1.3041     1.9069 C.ar    
   3 C3             0.4212     0.5833     1.7933 C.ar    
   4 C4             1.6379     1.2360     1.8111 C.ar    
   5 C5             1.6810     2.6183     1.9433 C.ar    
   6 C6             0.4992     3.3391     2.0571 C.ar    
   7 C7             0.5410     4.8386     2.2007 C.3     
   8 N8             2.9100     3.2817     1.9621 N.3     
   9 C9             3.0754     4.1180     0.7652 C.3     
  10 C10            4.3951     4.8871     0.8619 C.3     
  11 N11            5.5061     3.9340     0.9925 N.3     
  12 C12            5.3407     3.0977     2.1895 C.3     
  13 C13            4.0209     2.3286     2.0928 C.3     
  14 C14            6.7314     4.5954     1.0113 C.ar    
  15 C15            7.5068     4.5871     2.1646 C.ar    
  16 C16            8.7196     5.2401     2.1876 C.ar    
  17 C17            9.1738     5.9131     1.0504 C.ar    
  18 C18            8.3959     5.9226    -0.1113 C.ar    
  19 C19            7.1825     5.2619    -0.1318 C.ar    
  20 N20            6.4000     5.2690    -1.2938 N.am    
  21 C21            6.5099     6.2837    -2.1741 C.2     
  22 C22            5.6250     6.3403    -3.3419 C.2     
  23 O23            7.3437     7.1531    -1.9996 O.2     
  24 O24            4.6631     5.4465    -3.6517 O.3     
  25 C25            5.6261     7.3101    -4.3033 C.2     
  26 C26            4.6224     6.9679    -5.2229 C.2     
  27 C27            4.0575     5.8206    -4.7863 C.2     
  28 C28           10.4722     6.6131     1.0756 C.2     
  29 N29           11.2212     6.6037     2.1961 N.am    
  30 O30           10.8667     7.1985     0.0855 O.2     
  31 C31           12.5105     7.2988     2.2211 C.3     
  32 C32           13.1521     7.1340     3.6003 C.3     
  33 N33           14.4414     7.8291     3.6253 N.am    
  34 C34           14.6033     9.1143     3.9845 C.2     
  35 C35           15.7230     7.2100     3.2675 C.3     
  36 C36           16.6937     8.3859     3.0191 C.3     
  37 C37           16.0620     9.5028     3.8839 C.3     
  38 O38           13.7100     9.8549     4.3372 O.2     
  39 H39           -1.6339     3.2402     2.1226 H       
  40 H40           -1.7040     0.7911     1.8931 H       
  41 H41            0.3870    -0.4913     1.6909 H       
  42 H42            2.5550     0.6725     1.7227 H       
  43 H43            0.5910     5.2970     1.2130 H       
  44 H44           -0.3577     5.1797     2.7145 H       
  45 H45            1.4202     5.1239     2.7785 H       
  46 H46            3.0877     3.4849    -0.1220 H       
  47 H47            2.2474     4.8237     0.6973 H       
  48 H48            4.5338     5.4861    -0.0382 H       
  49 H49            4.3722     5.5406     1.7340 H       
  50 H50            6.1686     2.3920     2.2573 H       
  51 H51            5.3284     3.7308     3.0767 H       
  52 H52            3.8823     1.7296     2.9929 H       
  53 H53            4.0439     1.6751     1.2207 H       
  54 H54            7.1577     4.0679     3.0449 H       
  55 H55            9.3198     5.2321     3.0855 H       
  56 H56            8.7442     6.4422    -0.9916 H       
  57 H57            5.7791     4.5437    -1.4649 H       
  58 H58            6.2736     8.1734    -4.3474 H       
  59 H59            4.3509     7.5193    -6.1110 H       
  60 H60            3.2506     5.2922    -5.2723 H       
  61 H61           10.9065     6.1367     2.9859 H       
  62 H62           13.1672     6.8739     1.4619 H       
  63 H63           12.3562     8.3582     2.0164 H       
  64 H64           12.4954     7.5589     4.3595 H       
  65 H65           13.3064     6.0746     3.8050 H       
  66 H66           16.0842     6.5896     4.0877 H       
  67 H67           15.6139     6.6133     2.3620 H       
  68 H68           17.6971     8.1440     3.3694 H       
  69 H69           16.7066     8.6651     1.9656 H       
  70 H70           16.1662    10.4704     3.3930 H       
  71 H71           16.5197     9.5245     4.8729 H       
@<TRIPOS>BOND
   1    1    2 ar
   2    1    6 ar
   3    1   39 1
   4    2    3 ar
   5    2   40 1
   6    3    4 ar
   7    3   41 1
   8    4    5 ar
   9    4   42 1
  10    5    6 ar
  11    5    8 1
  12    6    7 1
  13    7   43 1
  14    7   44 1
  15    7   45 1
  16    8    9 1
  17    8   13 1
  18    9   10 1
  19    9   46 1
  20    9   47 1
  21   10   11 1
  22   10   48 1
  23   10   49 1
  24   11   12 1
  25   11   14 1
  26   12   13 1
  27   12   50 1
  28   12   51 1
  29   13   52 1
  30   13   53 1
  31   14   15 ar
  32   14   19 ar
  33   15   16 ar
  34   15   54 1
  35   16   17 ar
  36   16   55 1
  37   17   18 ar
  38   17   28 1
  39   18   19 ar
  40   18   56 1
  41   19   20 1
  42   20   21 am
  43   20   57 1
  44   21   22 1
  45   21   23 2
  46   22   24 1
  47   22   25 2
  48   24   27 1
  49   25   26 1
  50   25   58 1
  51   26   27 2
  52   26   59 1
  53   27   60 1
  54   28   29 am
  55   28   30 2
  56   29   31 1
  57   29   61 1
  58   31   32 1
  59   31   62 1
  60   31   63 1
  61   32   33 1
  62   32   64 1
  63   32   65 1
  64   33   34 am
  65   33   35 1
  66   34   38 2
  67   34   37 1
  68   35   36 1
  69   35   66 1
  70   35   67 1
  71   36   37 1
  72   36   68 1
  73   36   69 1
  74   37   70 1
  75   37   71 1

#	End of record

