#	Name: ASD02198136
#	Creating user name:	WinNT
#	Creation time:	15. 06. 2019 20:18

#	Modifying user name:	WinNT
#	Modification time:	15. 06. 2019 20:18

#	Program:	/corina/corina34_cracker 3.40 0067  02.08.2006

@<TRIPOS>MOLECULE
ASD02198136
  56   59    0    0    0
SMALL
NO_CHARGES


@<TRIPOS>ATOM
   1 C1            -0.0176     1.3653    -0.0370 C.2     
   2 C2             0.0040    -0.0130    -0.0476 C.2     
   3 C3            -1.1841    -0.8124    -0.0590 C.1     
   4 S4             1.5657     1.9977    -0.0258 S.3     
   5 C5             2.2776     0.3922    -0.0354 C.2     
   6 C6             1.2869    -0.5582    -0.0467 C.2     
   7 C7             3.6610     0.1199    -0.0327 C.2     
   8 C8             4.6312     1.2262    -0.1479 C.2     
   9 O9             4.0560    -1.0300     0.0649 O.2     
  10 N10            1.5371    -1.9224    -0.0558 N.pl3   
  11 N11           -1.1626     2.1279    -0.0410 N.pl3   
  12 N12           -2.1266    -1.4465    -0.0680 N.1     
  13 C13            5.1513     2.0137     0.8464 C.2     
  14 C14           -1.0690     3.5899    -0.0288 C.3     
  15 C15           -2.4547     4.1821    -0.0361 C.ar    
  16 O16            5.9850     2.8737     0.2545 O.3     
  17 N17            6.0507     2.7297    -0.9416 N.2     
  18 C18            5.2863     1.7538    -1.3623 C.2     
  19 C19            5.1079     1.2860    -2.7585 C.ar    
  20 C20            5.1356     2.1991    -3.8110 C.ar    
  21 C21            4.9695     1.7582    -5.1082 C.ar    
  22 C22            4.7758     0.4128    -5.3646 C.ar    
  23 C23            4.7469    -0.4979    -4.3238 C.ar    
  24 C24            4.9176    -0.0690    -3.0232 C.ar    
  25 C25            4.8426     1.9268     2.3189 C.3     
  26 C26           -3.0991     4.4436     1.1582 C.ar    
  27 C27           -4.3708     4.9870     1.1568 C.ar    
  28 C28           -5.0015     5.2703    -0.0435 C.ar    
  29 C29           -4.3525     5.0068    -1.2464 C.ar    
  30 C30           -3.0765     4.4677    -1.2378 C.ar    
  31 O31           -4.9676     5.2833    -2.4274 O.3     
  32 O32           -6.2523     5.8042    -0.0467 O.3     
  33 C33           -6.8570     6.0475     1.2249 C.3     
  34 C34           -4.2416     4.9868    -3.6220 C.3     
  35 H35            2.4509    -2.2479    -0.0544 H       
  36 H36            0.7984    -2.5510    -0.0637 H       
  37 H37           -2.0318     1.6977    -0.0519 H       
  38 H38           -0.5407     3.9127     0.8684 H       
  39 H39           -0.5253     3.9266    -0.9115 H       
  40 H40            5.2865     3.2499    -3.6119 H       
  41 H41            4.9905     2.4649    -5.9246 H       
  42 H42            4.6462     0.0721    -6.3813 H       
  43 H43            4.5946    -1.5471    -4.5298 H       
  44 H44            4.8949    -0.7809    -2.2114 H       
  45 H45            5.4817     1.1740     2.7803 H       
  46 H46            5.0253     2.8945     2.7862 H       
  47 H47            3.7974     1.6491     2.4552 H       
  48 H48           -2.6086     4.2229     2.0947 H       
  49 H49           -4.8723     5.1901     2.0915 H       
  50 H50           -2.5708     4.2624    -2.1697 H       
  51 H51           -6.9406     5.1090     1.7730 H       
  52 H52           -6.2418     6.7460     1.7922 H       
  53 H53           -7.8499     6.4730     1.0796 H       
  54 H54           -4.8446     5.2545    -4.4896 H       
  55 H55           -3.3134     5.5582    -3.6343 H       
  56 H56           -4.0128     3.9215    -3.6532 H       
@<TRIPOS>BOND
   1    1    2 2
   2    1    4 1
   3    1   11 1
   4    2    3 1
   5    2    6 1
   6    3   12 3
   7    4    5 1
   8    5    6 2
   9    5    7 1
  10    6   10 1
  11    7    8 1
  12    7    9 2
  13    8   13 2
  14    8   18 1
  15   10   35 1
  16   10   36 1
  17   11   14 1
  18   11   37 1
  19   13   16 1
  20   13   25 1
  21   14   15 1
  22   14   38 1
  23   14   39 1
  24   15   26 ar
  25   15   30 ar
  26   16   17 1
  27   17   18 2
  28   18   19 1
  29   19   20 ar
  30   19   24 ar
  31   20   21 ar
  32   20   40 1
  33   21   22 ar
  34   21   41 1
  35   22   23 ar
  36   22   42 1
  37   23   24 ar
  38   23   43 1
  39   24   44 1
  40   25   45 1
  41   25   46 1
  42   25   47 1
  43   26   27 ar
  44   26   48 1
  45   27   28 ar
  46   27   49 1
  47   28   29 ar
  48   28   32 1
  49   29   30 ar
  50   29   31 1
  51   30   50 1
  52   31   34 1
  53   32   33 1
  54   33   51 1
  55   33   52 1
  56   33   53 1
  57   34   54 1
  58   34   55 1
  59   34   56 1

#	End of record

