#	Name: ASD03730310
#	Creating user name:	WinNT
#	Creation time:	15. 06. 2019 20:44

#	Modifying user name:	WinNT
#	Modification time:	15. 06. 2019 20:44

#	Program:	/corina/corina34_cracker 3.40 0067  02.08.2006

@<TRIPOS>MOLECULE
ASD03730310
  51   58    0    0    0
SMALL
NO_CHARGES


@<TRIPOS>ATOM
   1 O1            -0.2805     1.2811     0.6495 O.3     
   2 C2            -0.2392    -0.1577     0.6838 C.3     
   3 O3             0.9290    -0.4853    -0.0913 O.3     
   4 C4             1.7596     0.5923     0.0270 C.ar    
   5 C5             1.0148     1.6788     0.4801 C.ar    
   6 C6             3.1136     0.7356    -0.2173 C.ar    
   7 C7             3.7402     1.9619    -0.0167 C.ar    
   8 C8             2.9835     3.0432     0.4246 C.ar    
   9 C9             1.6347     2.9015     0.6758 C.ar    
  10 O10            5.0498     2.3079    -0.1762 O.3     
  11 C11            3.9224     4.2165     0.5126 C.3     
  12 C12            5.1541     3.7416    -0.2707 C.3     
  13 N13            3.3431     6.3935     0.8960 N.am    
  14 C14            3.3309     5.4634    -0.0796 C.2     
  15 C15            4.2628     4.5723     1.9290 C.ar    
  16 C16            4.8294     3.8711     2.9849 C.ar    
  17 C17            5.0208     4.5032     4.2134 C.ar    
  18 C18            4.6448     5.8225     4.3702 C.ar    
  19 C19            4.0816     6.5188     3.3201 C.ar    
  20 C20            3.8844     5.9008     2.0863 C.ar    
  21 O21            2.9231     5.6058    -1.2130 O.2     
  22 O22            3.2757     1.4413     4.0268 O.3     
  23 C23            4.4330     1.4287     3.3312 C.ar    
  24 C24            4.8308     0.0982     3.1508 C.ar    
  25 C25            3.7953    -0.7209     3.8100 C.ar    
  26 C26            2.8648     0.1902     4.3293 C.ar    
  27 C27            6.0014    -0.1984     2.4599 C.ar    
  28 C28            6.7776     0.8218     1.9478 C.ar    
  29 C29            6.3967     2.1403     2.1185 C.ar    
  30 C30            5.2297     2.4540     2.8071 C.ar    
  31 C31            1.7574    -0.2912     5.0168 C.ar    
  32 C32            1.5829    -1.6493     5.1824 C.ar    
  33 C33            2.5043    -2.5471     4.6680 C.ar    
  34 C34            3.6099    -2.0880     3.9825 C.ar    
  35 H35           -0.1311    -0.5134     1.7085 H       
  36 H36           -1.1339    -0.5776     0.2241 H       
  37 H37            3.6882    -0.1098    -0.5657 H       
  38 H38            1.0604     3.7465     1.0260 H       
  39 H39            6.0718     4.0948     0.1996 H       
  40 H40            5.1007     4.0659    -1.3099 H       
  41 H41            3.0143     7.2993     0.7848 H       
  42 H42            5.4608     3.9629     5.0386 H       
  43 H43            4.7920     6.3127     5.3212 H       
  44 H44            3.7911     7.5501     3.4554 H       
  45 H45            6.3029    -1.2266     2.3245 H       
  46 H46            7.6861     0.5894     1.4121 H       
  47 H47            7.0103     2.9322     1.7148 H       
  48 H48            1.0325     0.3991     5.4222 H       
  49 H49            0.7202    -2.0164     5.7184 H       
  50 H50            2.3568    -3.6082     4.8041 H       
  51 H51            4.3284    -2.7875     3.5816 H       
@<TRIPOS>BOND
   1    1    2 1
   2    1    5 1
   3    2    3 1
   4    2   35 1
   5    2   36 1
   6    3    4 1
   7    4    5 ar
   8    4    6 ar
   9    5    9 ar
  10    6    7 ar
  11    6   37 1
  12    7    8 ar
  13    7   10 1
  14    8    9 ar
  15    8   11 1
  16    9   38 1
  17   10   12 1
  18   11   12 1
  19   11   14 1
  20   11   15 1
  21   12   39 1
  22   12   40 1
  23   13   14 am
  24   13   20 1
  25   13   41 1
  26   14   21 2
  27   15   16 ar
  28   15   20 ar
  29   16   17 ar
  30   16   30 1
  31   17   18 ar
  32   17   42 1
  33   18   19 ar
  34   18   43 1
  35   19   20 ar
  36   19   44 1
  37   22   23 1
  38   22   26 1
  39   23   24 ar
  40   23   30 ar
  41   24   25 1
  42   24   27 ar
  43   25   26 ar
  44   25   34 ar
  45   26   31 ar
  46   27   28 ar
  47   27   45 1
  48   28   29 ar
  49   28   46 1
  50   29   30 ar
  51   29   47 1
  52   31   32 ar
  53   31   48 1
  54   32   33 ar
  55   32   49 1
  56   33   34 ar
  57   33   50 1
  58   34   51 1

#	End of record

