#	Name: ASD01148134
#	Creating user name:	WinNT
#	Creation time:	15. 06. 2019 19:02

#	Modifying user name:	WinNT
#	Modification time:	15. 06. 2019 19:02

#	Program:	/corina/corina34_cracker 3.40 0067  02.08.2006

@<TRIPOS>MOLECULE
ASD01148134
  51   53    0    0    0
SMALL
NO_CHARGES


@<TRIPOS>ATOM
   1 C1             0.2481     1.2907     0.7584 C.2     
   2 C2             0.5609    -0.0653     0.5613 C.2     
   3 C3            -0.4408    -0.9772     0.4402 C.2     
   4 C4            -1.7812    -0.5459     0.5148 C.2     
   5 N5            -2.0558     0.7835     0.7077 N.pl3   
   6 C6            -1.0403     1.6883     0.8333 C.2     
   7 N7            -2.9305    -1.2002     0.4320 N.2     
   8 C8            -3.9427    -0.3289     0.5664 C.2     
   9 C9            -3.4157     0.9154     0.7396 C.2     
  10 C10           -5.3880    -0.6637     0.5318 C.ar    
  11 C11           -6.2765     0.1466    -0.1722 C.ar    
  12 C12           -5.8602    -1.7925     1.1986 C.ar    
  13 C13           -7.2051    -2.0995     1.1635 C.ar    
  14 C14           -8.0848    -1.2882     0.4674 C.ar    
  15 C15           -7.6196    -0.1689    -0.2014 C.ar    
  16 Cl16          -9.7755    -1.6798     0.4270 Cl      
  17 Cl17           1.5234     2.4583     0.9134 Cl      
  18 C18           -4.1870     2.1959     0.9308 C.3     
  19 C19           -4.3415     2.8922    -0.3968 C.2     
  20 C20           -5.1402     4.1667    -0.4907 C.3     
  21 O21           -3.8252     2.4290    -1.3853 O.2     
  22 C22           -4.2496     5.3551    -0.1228 C.3     
  23 C23           -5.6575     4.3402    -1.9201 C.3     
  24 C24           -6.6426     3.2158    -2.2460 C.3     
  25 C25           -7.1398     3.3743    -3.6843 C.3     
  26 C26           -5.0960     6.6284    -0.0658 C.3     
  27 C27           -4.1952     7.8262     0.2421 C.3     
  28 H28            1.5921    -0.3817     0.5058 H       
  29 H29           -0.2118    -2.0216     0.2882 H       
  30 H30           -1.2699     2.7326     0.9853 H       
  31 H31           -5.9147     1.0202    -0.6939 H       
  32 H32           -5.1747    -2.4262     1.7416 H       
  33 H33           -7.5720    -2.9744     1.6796 H       
  34 H34           -8.3098     0.4612    -0.7428 H       
  35 H35           -5.1720     1.9693     1.3389 H       
  36 H36           -3.6482     2.8450     1.6210 H       
  37 H37           -5.9840     4.1182     0.1976 H       
  38 H38           -3.7923     5.1788     0.8508 H       
  39 H39           -3.4693     5.4709    -0.8751 H       
  40 H40           -6.1618     5.3024    -2.0097 H       
  41 H41           -4.8199     4.3027    -2.6166 H       
  42 H42           -6.1434     2.2528    -2.1382 H       
  43 H43           -7.4893     3.2648    -1.5614 H       
  44 H44           -7.6390     4.3373    -3.7921 H       
  45 H45           -6.2931     3.3254    -4.3689 H       
  46 H46           -7.8416     2.5733    -3.9165 H       
  47 H47           -5.5878     6.7811    -1.0264 H       
  48 H48           -5.8488     6.5295     0.7162 H       
  49 H49           -3.7033     7.6735     1.2027 H       
  50 H50           -3.4423     7.9251    -0.5399 H       
  51 H51           -4.7982     8.7333     0.2827 H       
@<TRIPOS>BOND
   1    1    2 1
   2    1   17 1
   3    1    6 2
   4    2    3 2
   5    2   28 1
   6    3    4 1
   7    3   29 1
   8    4    5 1
   9    4    7 2
  10    5    6 1
  11    5    9 1
  12    6   30 1
  13    7    8 1
  14    8    9 2
  15    8   10 1
  16    9   18 1
  17   10   11 ar
  18   10   12 ar
  19   11   15 ar
  20   11   31 1
  21   12   13 ar
  22   12   32 1
  23   13   14 ar
  24   13   33 1
  25   14   15 ar
  26   14   16 1
  27   15   34 1
  28   18   19 1
  29   18   35 1
  30   18   36 1
  31   19   20 1
  32   19   21 2
  33   20   22 1
  34   20   23 1
  35   20   37 1
  36   22   26 1
  37   22   38 1
  38   22   39 1
  39   23   24 1
  40   23   40 1
  41   23   41 1
  42   24   25 1
  43   24   42 1
  44   24   43 1
  45   25   44 1
  46   25   45 1
  47   25   46 1
  48   26   27 1
  49   26   47 1
  50   26   48 1
  51   27   49 1
  52   27   50 1
  53   27   51 1

#	End of record

