#	Name: ASD03082208
#	Creating user name:	WinNT
#	Creation time:	15. 06. 2019 20:27

#	Modifying user name:	WinNT
#	Modification time:	15. 06. 2019 20:27

#	Program:	/corina/corina34_cracker 3.40 0067  02.08.2006

@<TRIPOS>MOLECULE
ASD03082208
  43   46    0    0    0
SMALL
NO_CHARGES


@<TRIPOS>ATOM
   1 N1             0.2313     1.8182    -0.2079 N.pl3   
   2 N2             0.0223     0.4306    -0.2607 N.2     
   3 C3             1.1760    -0.1405    -0.0018 C.2     
   4 N4             2.0923     0.8060     0.2093 N.2     
   5 C5             1.5382     1.9958     0.0885 C.2     
   6 N6             1.4066    -1.5167     0.0457 N.pl3   
   7 C7             0.3367    -2.4096    -0.0746 C.ar    
   8 C8             0.5542    -3.6955    -0.5530 C.ar    
   9 C9            -0.5034    -4.5755    -0.6705 C.ar    
  10 C10           -1.7804    -4.1768    -0.3121 C.ar    
  11 C11           -1.9996    -2.8955     0.1646 C.ar    
  12 C12           -0.9436    -2.0139     0.2896 C.ar    
  13 C13           -0.2681    -5.9706    -1.1895 C.3     
  14 F14            1.0898    -6.1362    -1.4826 F       
  15 F15           -0.6522    -6.9007    -0.2176 F       
  16 F16           -1.0234    -6.1700    -2.3501 F       
  17 N17            4.2263     4.5389     0.2921 N.ar    
  18 C18            3.6144     3.3815     0.1500 C.ar    
  19 C19            2.2254     3.2964     0.2487 C.ar    
  20 C20            1.4931     4.4614     0.5012 C.ar    
  21 C21            2.1835     5.6527     0.6425 C.ar    
  22 C22            3.5619     5.6535     0.5307 C.ar    
  23 C23           -0.7674     2.8656    -0.4354 C.3     
  24 O24           -1.4052     3.1921     0.8010 O.3     
  25 F25           -2.8138    -5.0392    -0.4282 F       
  26 C26            4.3173     6.9484     0.6844 C.3     
  27 C27            4.6771     7.3922     2.1038 C.3     
  28 C28            3.5801     8.1243     1.3283 C.3     
  29 H29            2.3087    -1.8536     0.1621 H       
  30 H30            1.5498    -4.0066    -0.8333 H       
  31 H31           -2.9964    -2.5865     0.4429 H       
  32 H32           -1.1143    -1.0161     0.6660 H       
  33 H33            4.1928     2.4906    -0.0450 H       
  34 H34            0.4166     4.4320     0.5834 H       
  35 H35            1.6513     6.5720     0.8377 H       
  36 H36           -0.2783     3.7528    -0.8374 H       
  37 H37           -1.5131     2.5085    -1.1456 H       
  38 H38           -2.0801     3.8805     0.7256 H       
  39 H39            5.0295     7.1742    -0.1092 H       
  40 H40            4.3674     6.7476     2.9264 H       
  41 H41            5.6258     7.9103     2.2438 H       
  42 H42            3.8070     9.1241     0.9581 H       
  43 H43            2.5486     7.9613     1.6407 H       
@<TRIPOS>BOND
   1    1    2 1
   2    1    5 1
   3    1   23 1
   4    2    3 2
   5    3    4 1
   6    3    6 1
   7    4    5 2
   8    5   19 1
   9    6    7 1
  10    6   29 1
  11    7    8 ar
  12    7   12 ar
  13    8    9 ar
  14    8   30 1
  15    9   10 ar
  16    9   13 1
  17   10   11 ar
  18   10   25 1
  19   11   12 ar
  20   11   31 1
  21   12   32 1
  22   13   14 1
  23   13   15 1
  24   13   16 1
  25   17   18 ar
  26   17   22 ar
  27   18   19 ar
  28   18   33 1
  29   19   20 ar
  30   20   21 ar
  31   20   34 1
  32   21   22 ar
  33   21   35 1
  34   22   26 1
  35   23   24 1
  36   23   36 1
  37   23   37 1
  38   24   38 1
  39   26   27 1
  40   26   28 1
  41   26   39 1
  42   27   28 1
  43   27   40 1
  44   27   41 1
  45   28   42 1
  46   28   43 1

#	End of record

