#	Name: ASD02500911
#	Creating user name:	WinNT
#	Creation time:	15. 06. 2019 20:23

#	Modifying user name:	WinNT
#	Modification time:	15. 06. 2019 20:23

#	Program:	/corina/corina34_cracker 3.40 0067  02.08.2006

@<TRIPOS>MOLECULE
ASD02500911
  44   47    0    0    0
SMALL
NO_CHARGES


@<TRIPOS>ATOM
   1 C1             0.2355     2.0673    -0.6455 C.2     
   2 C2             0.0617     0.6735    -0.7460 C.2     
   3 C3            -1.2903     0.1379    -0.9737 C.ar    
   4 C4            -2.2938     1.0671    -1.3148 C.ar    
   5 O5            -2.0122     2.3833    -1.4547 O.3     
   6 C6            -0.9677     2.9235    -0.7853 C.2     
   7 C7            -1.5855    -1.2157    -0.8602 C.ar    
   8 C8            -2.8773    -1.6499    -1.0740 C.ar    
   9 C9            -3.8713    -0.7393    -1.3982 C.ar    
  10 C10           -3.5881     0.6050    -1.5182 C.ar    
  11 C11            1.5480     2.4319    -0.4300 C.2     
  12 C12            2.4066     1.3916    -0.3594 C.2     
  13 S13            1.5432    -0.1254    -0.5705 S.3     
  14 C14            3.8517     1.5103    -0.1378 C.2     
  15 N15            4.5966     0.4043     0.0576 N.am    
  16 O16            4.3780     2.6076    -0.1305 O.2     
  17 O17           -1.0138     4.0467    -0.3198 O.2     
  18 C18            3.9469    -0.9015     0.1956 C.3     
  19 C19           -3.2083    -3.1153    -0.9556 C.3     
  20 C20            5.9896     0.5031     0.1286 C.ar    
  21 C21            6.6176     1.7075    -0.1617 C.ar    
  22 C22            7.9936     1.8017    -0.0906 C.ar    
  23 C23            8.7461     0.6986     0.2691 C.ar    
  24 C24            8.1239    -0.5020     0.5587 C.ar    
  25 C25            6.7479    -0.6014     0.4951 C.ar    
  26 C26            3.7733    -1.5227    -1.1664 C.2     
  27 C27            4.2506    -2.7188    -1.4064 C.2     
  28 H28           -0.8090    -1.9223    -0.6069 H       
  29 H29           -4.8808    -1.0876    -1.5594 H       
  30 H30           -4.3747     1.3006    -1.7710 H       
  31 H31            1.8621     3.4601    -0.3271 H       
  32 H32            4.5650    -1.5512     0.8152 H       
  33 H33            2.9709    -0.7740     0.6639 H       
  34 H34           -3.4962    -3.3409     0.0712 H       
  35 H35           -4.0334    -3.3568    -1.6257 H       
  36 H36           -2.3347    -3.7082    -1.2265 H       
  37 H37            6.0306     2.5692    -0.4430 H       
  38 H38            8.4826     2.7378    -0.3165 H       
  39 H39            9.8220     0.7748     0.3236 H       
  40 H40            8.7144    -1.3616     0.8393 H       
  41 H41            6.2626    -1.5392     0.7218 H       
  42 H42            3.2554    -0.9817    -1.9446 H       
  43 H43            4.7685    -3.2597    -0.6282 H       
  44 H44            4.1262    -3.1640    -2.3825 H       
@<TRIPOS>BOND
   1    1    2 2
   2    1   11 1
   3    1    6 1
   4    2    3 1
   5    2   13 1
   6    3    4 ar
   7    3    7 ar
   8    4    5 1
   9    4   10 ar
  10    5    6 1
  11    6   17 2
  12    7    8 ar
  13    7   28 1
  14    8    9 ar
  15    8   19 1
  16    9   10 ar
  17    9   29 1
  18   10   30 1
  19   11   12 2
  20   11   31 1
  21   12   13 1
  22   12   14 1
  23   14   15 am
  24   14   16 2
  25   15   20 1
  26   15   18 1
  27   18   26 1
  28   18   32 1
  29   18   33 1
  30   19   34 1
  31   19   35 1
  32   19   36 1
  33   20   21 ar
  34   20   25 ar
  35   21   22 ar
  36   21   37 1
  37   22   23 ar
  38   22   38 1
  39   23   24 ar
  40   23   39 1
  41   24   25 ar
  42   24   40 1
  43   25   41 1
  44   26   27 2
  45   26   42 1
  46   27   43 1
  47   27   44 1

#	End of record

