#	Name: ASD01881519
#	Creating user name:	WinNT
#	Creation time:	15. 06. 2019 19:42

#	Modifying user name:	WinNT
#	Modification time:	15. 06. 2019 19:42

#	Program:	/corina/corina34_cracker 3.40 0067  02.08.2006

@<TRIPOS>MOLECULE
ASD01881519
  61   64    0    0    0
SMALL
NO_CHARGES


@<TRIPOS>ATOM
   1 C1            -0.0168     1.3907     0.0097 C.ar    
   2 C2             0.0021    -0.0041     0.0020 C.ar    
   3 C3             1.2216    -0.6842    -0.0133 C.ar    
   4 C4             2.3982     0.0225    -0.0207 C.ar    
   5 C5             2.3853     1.4211    -0.0130 C.ar    
   6 C6             1.1635     2.0993     0.0022 C.ar    
   7 C7             3.8491    -0.3901    -0.0367 C.3     
   8 N8             4.6290     0.8527    -0.0375 N.am    
   9 C9             3.7814     1.8956    -0.0238 C.2     
  10 C10            6.0912     0.9421    -0.0509 C.3     
  11 C11            6.5865     0.9809    -1.4980 C.3     
  12 C12            8.1136     1.0743    -1.5121 C.3     
  13 O13            4.1178     3.0638    -0.0211 O.2     
  14 O14            8.5762     1.1106    -2.8636 O.3     
  15 C15            6.1468    -0.2932    -2.2220 C.3     
  16 C16            5.9945     2.2006    -2.2071 C.3     
  17 C17           -1.2713    -0.7637     0.0106 C.ar    
  18 C18           -2.4898    -0.0866     0.0263 C.ar    
  19 C19           -3.6718    -0.7989     0.0342 C.ar    
  20 C20           -3.6490    -2.1820     0.0271 C.ar    
  21 C21           -2.4429    -2.8592     0.0119 C.ar    
  22 C22           -1.2547    -2.1575    -0.0028 C.ar    
  23 C23           -4.9432    -2.9540     0.0363 C.3     
  24 N24           -5.3766    -3.1973    -1.3418 N.am    
  25 C25           -5.0622    -4.2574    -2.1080 C.2     
  26 C26           -6.2468    -2.3319    -2.1566 C.3     
  27 C27           -6.3530    -3.0731    -3.4746 C.2     
  28 N28           -5.6148    -4.1906    -3.3246 N.am    
  29 O29           -4.3551    -5.1735    -1.7365 O.2     
  30 O30           -6.9756    -2.7332    -4.4577 O.2     
  31 C31           -5.4381    -5.2060    -4.3657 C.3     
  32 C32           -4.2150    -4.8570    -5.2161 C.3     
  33 F33           -4.4033    -3.6056    -5.8125 F       
  34 F34           -3.0770    -4.8197    -4.4032 F       
  35 H35           -0.9603     1.9162     0.0170 H       
  36 H36            1.2389    -1.7641    -0.0189 H       
  37 H37            1.1451     3.1791     0.0078 H       
  38 H38            4.0814    -0.9776     0.8516 H       
  39 H39            4.0644    -0.9680    -0.9355 H       
  40 H40            6.4045     1.8498     0.4648 H       
  41 H41            6.5130     0.0732     0.4542 H       
  42 H42            8.4269     1.9820    -0.9963 H       
  43 H43            8.5354     0.2054    -1.0069 H       
  44 H44            9.5376     1.1698    -2.9488 H       
  45 H45            5.0589    -0.3597    -2.2120 H       
  46 H46            6.4996    -0.2655    -3.2529 H       
  47 H47            6.5686    -1.1621    -1.7168 H       
  48 H48            6.3078     3.1083    -1.6914 H       
  49 H49            6.3473     2.2283    -3.2381 H       
  50 H50            4.9065     2.1341    -2.1971 H       
  51 H51           -2.5087     0.9932     0.0326 H       
  52 H52           -4.6164    -0.2754     0.0464 H       
  53 H53           -2.4312    -3.9392     0.0071 H       
  54 H54           -0.3136    -2.6873    -0.0150 H       
  55 H55           -4.7942    -3.9070     0.5439 H       
  56 H56           -5.7059    -2.3784     0.5608 H       
  57 H57           -7.2284    -2.2302    -1.6936 H       
  58 H58           -5.7873    -1.3543    -2.3023 H       
  59 H59           -5.2913    -6.1810    -3.9011 H       
  60 H60           -6.3247    -5.2351    -4.9991 H       
  61 H61           -4.0835    -5.6126    -5.9907 H       
@<TRIPOS>BOND
   1    1    2 ar
   2    1    6 ar
   3    1   35 1
   4    2    3 ar
   5    2   17 1
   6    3    4 ar
   7    3   36 1
   8    4    5 ar
   9    4    7 1
  10    5    6 ar
  11    5    9 1
  12    6   37 1
  13    7    8 1
  14    7   38 1
  15    7   39 1
  16    8    9 am
  17    8   10 1
  18    9   13 2
  19   10   11 1
  20   10   40 1
  21   10   41 1
  22   11   15 1
  23   11   16 1
  24   11   12 1
  25   12   14 1
  26   12   42 1
  27   12   43 1
  28   14   44 1
  29   15   45 1
  30   15   46 1
  31   15   47 1
  32   16   48 1
  33   16   49 1
  34   16   50 1
  35   17   18 ar
  36   17   22 ar
  37   18   19 ar
  38   18   51 1
  39   19   20 ar
  40   19   52 1
  41   20   21 ar
  42   20   23 1
  43   21   22 ar
  44   21   53 1
  45   22   54 1
  46   23   24 1
  47   23   55 1
  48   23   56 1
  49   24   25 am
  50   24   26 1
  51   25   29 2
  52   25   28 am
  53   26   27 1
  54   26   57 1
  55   26   58 1
  56   27   28 am
  57   27   30 2
  58   28   31 1
  59   31   32 1
  60   31   59 1
  61   31   60 1
  62   32   33 1
  63   32   34 1
  64   32   61 1

#	End of record

