#	Name: ASD07930254
#	Creating user name:	WinNT
#	Creation time:	15. 06. 2019 21:12

#	Modifying user name:	WinNT
#	Modification time:	15. 06. 2019 21:12

#	Program:	/corina/corina34_cracker 3.40 0067  02.08.2006

@<TRIPOS>MOLECULE
ASD07930254
  61   65    0    0    0
SMALL
NO_CHARGES


@<TRIPOS>ATOM
   1 C1            -0.0165     1.3638     0.0095 C.2     
   2 C2             0.0021    -0.0041     0.0020 C.2     
   3 C3             1.2948    -0.6930    -0.0137 C.2     
   4 N4             2.4269     0.0320    -0.0184 N.am    
   5 C5             2.3819     1.4078    -0.0126 C.2     
   6 C6             1.1929     2.0698     0.0018 C.2     
   7 C7             3.7400    -0.6270    -0.0278 C.3     
   8 C8             4.6599     0.1585    -0.9744 C.3     
   9 N9             4.7714     1.5377    -0.4785 N.am    
  10 C10            3.6569     2.1587    -0.0238 C.2     
  11 C11            6.0638     2.2277    -0.4763 C.3     
  12 O12            3.7031     3.3090     0.3671 O.2     
  13 O13            1.3435    -1.9113    -0.0219 O.2     
  14 N14           -1.1914    -0.7315     0.0096 N.pl3   
  15 C15           -1.6504    -1.5415    -0.9805 C.2     
  16 N16           -2.7956    -2.0446    -0.6082 N.2     
  17 C17           -3.1078    -1.5843     0.6125 C.2     
  18 C18           -2.1178    -0.7676     1.0201 C.2     
  19 C19           -4.3493    -1.9268     1.3951 C.3     
  20 C20            6.2498     2.9665    -1.8031 C.3     
  21 O21            5.2694     4.0003    -1.9141 O.3     
  22 C22            5.2960     4.7569    -3.0422 C.ar    
  23 C23            4.3659     5.7865    -3.2179 C.ar    
  24 C24            6.2473     4.5145    -4.0180 C.ar    
  25 C25            6.2735     5.2886    -5.1689 C.ar    
  26 C26            5.3473     6.3078    -5.3460 C.ar    
  27 C27            4.3986     6.5589    -4.3763 C.ar    
  28 C28            3.3470     6.0548    -2.1734 C.2     
  29 C29            2.3557     7.0545    -2.2200 C.2     
  30 C30            1.6301     6.9714    -1.0835 C.2     
  31 N31            2.1337     5.9627    -0.3403 N.pl3   
  32 N32            3.2060     5.3971    -1.0419 N.2     
  33 O33            7.2085     5.0492    -6.1253 O.3     
  34 C34            7.1788     5.8836    -7.2850 C.3     
  35 C35            0.4643     7.8503    -0.7104 C.3     
  36 F36           -0.0306     7.4628     0.5394 F       
  37 F37            0.8849     9.1833    -0.6526 F       
  38 F38           -0.5439     7.7208    -1.6717 F       
  39 H39           -0.9567     1.8952     0.0169 H       
  40 H40            1.1819     3.1497     0.0071 H       
  41 H41            4.1596    -0.6262     0.9782 H       
  42 H42            3.6350    -1.6521    -0.3830 H       
  43 H43            5.6465    -0.3045    -0.9940 H       
  44 H44            4.2345     0.1634    -1.9779 H       
  45 H45            6.0920     2.9435     0.3453 H       
  46 H46            6.8645     1.4989    -0.3509 H       
  47 H47           -1.1514    -1.7356    -1.9184 H       
  48 H48           -2.0667    -0.2372     1.9595 H       
  49 H49           -4.1600    -2.8068     2.0099 H       
  50 H50           -4.6181    -1.0869     2.0358 H       
  51 H51           -5.1676    -2.1343     0.7057 H       
  52 H52            7.2467     3.4059    -1.8376 H       
  53 H53            6.1331     2.2650    -2.6291 H       
  54 H54            6.9694     3.7228    -3.8833 H       
  55 H55            5.3720     6.9080    -6.2435 H       
  56 H56            3.6793     7.3521    -4.5170 H       
  57 H57            2.2028     7.7617    -3.0218 H       
  58 H58            1.8077     5.6775     0.5276 H       
  59 H59            6.2155     5.7778    -7.7841 H       
  60 H60            7.3223     6.9227    -6.9888 H       
  61 H61            7.9757     5.5867    -7.9668 H       
@<TRIPOS>BOND
   1    1    2 2
   2    1    6 1
   3    1   39 1
   4    2    3 1
   5    2   14 1
   6    3    4 am
   7    3   13 2
   8    4    5 1
   9    4    7 1
  10    5    6 2
  11    5   10 1
  12    6   40 1
  13    7    8 1
  14    7   41 1
  15    7   42 1
  16    8    9 1
  17    8   43 1
  18    8   44 1
  19    9   10 am
  20    9   11 1
  21   10   12 2
  22   11   20 1
  23   11   45 1
  24   11   46 1
  25   14   15 1
  26   14   18 1
  27   15   16 2
  28   15   47 1
  29   16   17 1
  30   17   18 2
  31   17   19 1
  32   18   48 1
  33   19   49 1
  34   19   50 1
  35   19   51 1
  36   20   21 1
  37   20   52 1
  38   20   53 1
  39   21   22 1
  40   22   23 ar
  41   22   24 ar
  42   23   27 ar
  43   23   28 1
  44   24   25 ar
  45   24   54 1
  46   25   26 ar
  47   25   33 1
  48   26   27 ar
  49   26   55 1
  50   27   56 1
  51   28   29 1
  52   28   32 2
  53   29   30 2
  54   29   57 1
  55   30   31 1
  56   30   35 1
  57   31   32 1
  58   31   58 1
  59   33   34 1
  60   34   59 1
  61   34   60 1
  62   34   61 1
  63   35   36 1
  64   35   37 1
  65   35   38 1

#	End of record

