#	Name: ASD02039426
#	Creating user name:	WinNT
#	Creation time:	15. 06. 2019 20:18

#	Modifying user name:	WinNT
#	Modification time:	15. 06. 2019 20:18

#	Program:	/corina/corina34_cracker 3.40 0067  02.08.2006

@<TRIPOS>MOLECULE
ASD02039426
  56   59    0    0    0
SMALL
NO_CHARGES


@<TRIPOS>ATOM
   1 C1             0.1324     1.1905     0.0647 C.ar    
   2 C2             0.4141    -0.1574     0.1958 C.ar    
   3 C3             1.2578     2.1910     0.0056 C.3     
   4 N4             1.7446     2.2976    -1.3720 N.am    
   5 C5             1.2830     3.2758    -2.1761 C.2     
   6 C6             0.2177     4.1767    -1.7032 C.2     
   7 C7            -0.4143     5.1350    -2.4404 C.2     
   8 N8            -0.3182     4.2007    -0.4560 N.2     
   9 C9            -1.2327     5.1258    -0.4085 C.2     
  10 N10           -1.3183     5.7260    -1.6242 N.pl3   
  11 O11            1.7460     3.4147    -3.2922 O.2     
  12 C12           -2.2256     6.8176    -1.9867 C.3     
  13 C13            2.7333     1.3409    -1.8756 C.3     
  14 C14           -0.6127    -1.0822     0.2499 C.ar    
  15 C15           -2.2164     0.6953     0.0310 C.ar    
  16 C16           -1.1764     1.6210    -0.0179 C.ar    
  17 C17           -3.6249     1.1523    -0.0573 C.ar    
  18 C18           -4.0949     2.1917     0.7541 C.ar    
  19 C19           -1.9279    -0.6630     0.1735 C.ar    
  20 C20           -4.5137     0.5614    -0.9549 C.ar    
  21 C21           -5.8238     1.0208    -1.0048 C.ar    
  22 N22           -6.2261     2.0042    -0.2140 N.ar    
  23 C23           -5.4096     2.5889     0.6431 C.ar    
  24 F24           -2.9309    -1.5666     0.2258 F       
  25 C25            2.3122     0.6511    -3.1839 C.3     
  26 C26            3.7734     0.7989    -3.6400 C.3     
  27 C27            3.8702     1.9950    -2.6783 C.3     
  28 N28           -6.7220     0.4425    -1.8946 N.pl3   
  29 C29           -6.3174    -0.7162    -2.6945 C.3     
  30 C30           -8.0731     0.9919    -2.0323 C.3     
  31 H31            1.4402    -0.4891     0.2558 H       
  32 H32            0.8969     3.1638     0.3397 H       
  33 H33            2.0703     1.8627     0.6538 H       
  34 H34           -0.2287     5.3762    -3.4766 H       
  35 H35           -1.8293     5.3740     0.4569 H       
  36 H36           -1.7415     7.7737    -1.7877 H       
  37 H37           -2.4720     6.7486    -3.0462 H       
  38 H38           -3.1385     6.7427    -1.3957 H       
  39 H39            3.0807     0.6483    -1.1090 H       
  40 H40           -0.3868    -2.1334     0.3516 H       
  41 H41           -1.3936     2.6731    -0.1280 H       
  42 H42           -3.4351     2.6762     1.4587 H       
  43 H43           -4.1887    -0.2404    -1.6013 H       
  44 H44           -5.7789     3.3871     1.2699 H       
  45 H45            1.9991    -0.3843    -3.0504 H       
  46 H46            1.6083     1.2340    -3.7779 H       
  47 H47            4.4065    -0.0418    -3.3563 H       
  48 H48            3.8775     1.0732    -4.6898 H       
  49 H49            3.5922     2.9454    -3.1341 H       
  50 H50            4.8148     2.0445    -2.1367 H       
  51 H51           -6.5482    -1.6320    -2.1502 H       
  52 H52           -6.8573    -0.7105    -3.6414 H       
  53 H53           -5.2456    -0.6684    -2.8871 H       
  54 H54           -8.1888     1.8442    -1.3628 H       
  55 H55           -8.2311     1.3142    -3.0615 H       
  56 H56           -8.8047     0.2259    -1.7751 H       
@<TRIPOS>BOND
   1    1    2 ar
   2    1    3 1
   3    1   16 ar
   4    2   14 ar
   5    2   31 1
   6    3    4 1
   7    3   32 1
   8    3   33 1
   9    4    5 am
  10    4   13 1
  11    5    6 1
  12    5   11 2
  13    6    7 2
  14    6    8 1
  15    7   10 1
  16    7   34 1
  17    8    9 2
  18    9   10 1
  19    9   35 1
  20   10   12 1
  21   12   36 1
  22   12   37 1
  23   12   38 1
  24   13   25 1
  25   13   27 1
  26   13   39 1
  27   14   19 ar
  28   14   40 1
  29   15   16 ar
  30   15   17 1
  31   15   19 ar
  32   16   41 1
  33   17   20 ar
  34   17   18 ar
  35   18   23 ar
  36   18   42 1
  37   19   24 1
  38   20   21 ar
  39   20   43 1
  40   21   22 ar
  41   21   28 1
  42   22   23 ar
  43   23   44 1
  44   25   26 1
  45   25   45 1
  46   25   46 1
  47   26   27 1
  48   26   47 1
  49   26   48 1
  50   27   49 1
  51   27   50 1
  52   28   29 1
  53   28   30 1
  54   29   51 1
  55   29   52 1
  56   29   53 1
  57   30   54 1
  58   30   55 1
  59   30   56 1

#	End of record

