#	Name: ASD00170354
#	Creating user name:	WinNT
#	Creation time:	15. 06. 2019 18:32

#	Modifying user name:	WinNT
#	Modification time:	15. 06. 2019 18:32

#	Program:	/corina/corina34_cracker 3.40 0067  02.08.2006

@<TRIPOS>MOLECULE
ASD00170354
  36   38    0    0    0
SMALL
NO_CHARGES


@<TRIPOS>ATOM
   1 C1            -0.0111     1.3269    -0.0784 C.2     
   2 C2             0.0138    -0.0108    -0.0738 C.2     
   3 C3             1.3170     1.9154     0.0059 C.2     
   4 C4             2.3118     0.9710     0.0722 C.2     
   5 S5             1.6614    -0.6032     0.0338 S.3     
   6 N6             3.6585     1.2586     0.1579 N.pl3   
   7 C7             1.5580     3.3128     0.0179 C.2     
   8 O8             1.7401     3.9083    -1.0288 O.2     
   9 C9             1.5882     4.0474     1.3018 C.ar    
  10 C10            1.2745     3.3906     2.4924 C.ar    
  11 C11            1.3050     4.0812     3.6865 C.ar    
  12 C12            1.6457     5.4219     3.7051 C.ar    
  13 C13            1.9575     6.0792     2.5279 C.ar    
  14 C14            1.9363     5.3988     1.3281 C.ar    
  15 Br15          -1.5195    -1.1135    -0.1696 Br      
  16 C16           -1.2574     2.1238    -0.1663 C.ar    
  17 C17           -2.1948     2.0733     0.8648 C.ar    
  18 C18           -3.3532     2.8180     0.7775 C.ar    
  19 C19           -3.5855     3.6135    -0.3302 C.ar    
  20 C20           -2.6594     3.6674    -1.3565 C.ar    
  21 C21           -1.4947     2.9316    -1.2779 C.ar    
  22 C22            2.3265     7.5400     2.5574 C.3     
  23 F23            2.2838     8.0052     3.8761 F       
  24 F24            3.6183     7.7051     2.0463 F       
  25 F25            1.4201     8.2659     1.7773 F       
  26 H26            3.9630     2.1776     0.0969 H       
  27 H27            4.3007     0.5419     0.2793 H       
  28 H28            1.0080     2.3440     2.4791 H       
  29 H29            1.0621     3.5742     4.6086 H       
  30 H30            1.6682     5.9580     4.6424 H       
  31 H31            2.1798     5.9129     0.4101 H       
  32 H32           -2.0146     1.4523     1.7299 H       
  33 H33           -4.0801     2.7794     1.5753 H       
  34 H34           -4.4936     4.1946    -0.3941 H       
  35 H35           -2.8464     4.2900    -2.2190 H       
  36 H36           -0.7725     2.9745    -2.0798 H       
@<TRIPOS>BOND
   1    1    2 2
   2    1    3 1
   3    1   16 1
   4    2   15 1
   5    2    5 1
   6    3    4 2
   7    3    7 1
   8    4    5 1
   9    4    6 1
  10    6   26 1
  11    6   27 1
  12    7    8 2
  13    7    9 1
  14    9   10 ar
  15    9   14 ar
  16   10   11 ar
  17   10   28 1
  18   11   12 ar
  19   11   29 1
  20   12   13 ar
  21   12   30 1
  22   13   22 1
  23   13   14 ar
  24   14   31 1
  25   16   17 ar
  26   16   21 ar
  27   17   18 ar
  28   17   32 1
  29   18   19 ar
  30   18   33 1
  31   19   20 ar
  32   19   34 1
  33   20   21 ar
  34   20   35 1
  35   21   36 1
  36   22   23 1
  37   22   24 1
  38   22   25 1

#	End of record

