#	Name: ASD01916507
#	Creating user name:	WinNT
#	Creation time:	15. 06. 2019 20:07

#	Modifying user name:	WinNT
#	Modification time:	15. 06. 2019 20:07

#	Program:	/corina/corina34_cracker 3.40 0067  02.08.2006

@<TRIPOS>MOLECULE
ASD01916507
  32   33    0    0    0
SMALL
NO_CHARGES


@<TRIPOS>ATOM
   1 C1            -0.0180     1.4731     0.0101 C.2     
   2 C2             0.0021    -0.0041     0.0020 C.ar    
   3 C3             1.2189    -0.6887    -0.0133 C.ar    
   4 C4             1.2302    -2.0691    -0.0203 C.ar    
   5 C5             0.0380    -2.7740    -0.0122 C.ar    
   6 C6            -1.1704    -2.1009     0.0029 C.ar    
   7 C7            -1.1955    -0.7215     0.0154 C.ar    
   8 O8             1.0256     2.0947     0.0035 O.2     
   9 O9            -1.1936     2.1307     0.0193 O.3     
  10 Cl10           2.7415    -2.9231    -0.0399 Cl      
  11 C11           -1.1373     3.5816     0.0269 C.3     
  12 C12           -2.5589     4.1471     0.0367 C.3     
  13 C13           -2.5018     5.6180     0.0445 C.1     
  14 C14           -2.4563     6.7911     0.0506 C.1     
  15 C15           -2.4008     8.2220     0.0581 C.ar    
  16 C16           -3.5845     8.9608     0.0678 C.ar    
  17 C17           -3.5141    10.3424     0.0749 C.ar    
  18 C18           -2.2623    10.9425     0.0723 C.ar    
  19 C19           -1.1295    10.1498     0.0626 C.ar    
  20 N20           -1.2231     8.8357     0.0613 N.ar    
  21 H21            2.1489    -0.1397    -0.0199 H       
  22 H22            0.0519    -3.8539    -0.0182 H       
  23 H23           -2.0964    -2.6566     0.0091 H       
  24 H24           -2.1398    -0.1977     0.0314 H       
  25 H25           -0.6055     3.9199     0.9162 H       
  26 H26           -0.6140     3.9296    -0.8637 H       
  27 H27           -3.0907     3.8088    -0.8526 H       
  28 H28           -3.0822     3.7991     0.9273 H       
  29 H29           -4.5420     8.4611     0.0692 H       
  30 H30           -4.4131    10.9409     0.0821 H       
  31 H31           -2.1741    12.0189     0.0773 H       
  32 H32           -0.1545    10.6142     0.0601 H       
@<TRIPOS>BOND
   1    1    2 1
   2    1    8 2
   3    1    9 1
   4    2    3 ar
   5    2    7 ar
   6    3    4 ar
   7    3   21 1
   8    4    5 ar
   9    4   10 1
  10    5    6 ar
  11    5   22 1
  12    6    7 ar
  13    6   23 1
  14    7   24 1
  15    9   11 1
  16   11   12 1
  17   11   25 1
  18   11   26 1
  19   12   13 1
  20   12   27 1
  21   12   28 1
  22   13   14 3
  23   14   15 1
  24   15   16 ar
  25   15   20 ar
  26   16   17 ar
  27   16   29 1
  28   17   18 ar
  29   17   30 1
  30   18   19 ar
  31   18   31 1
  32   19   20 ar
  33   19   32 1

#	End of record

