#	Name: ASD01814100
#	Creating user name:	WinNT
#	Creation time:	15. 06. 2019 19:31

#	Modifying user name:	WinNT
#	Modification time:	15. 06. 2019 19:31

#	Program:	/corina/corina34_cracker 3.40 0067  02.08.2006

@<TRIPOS>MOLECULE
ASD01814100
  47   51    0    0    0
SMALL
NO_CHARGES


@<TRIPOS>ATOM
   1 C1             1.1593     2.2499    -0.5156 C.ar    
   2 C2             0.7825     0.9157    -0.5002 C.ar    
   3 C3             1.7241    -0.0815    -0.3475 C.ar    
   4 C4             3.0711     0.2476    -0.2070 C.ar    
   5 C5             3.4516     1.6003    -0.2233 C.ar    
   6 C6             2.4876     2.5997    -0.3782 C.ar    
   7 N7             4.0211    -0.7401    -0.0528 N.pl3   
   8 C8             5.3263    -0.4755     0.0867 C.2     
   9 C9             5.8193     0.8137     0.0868 C.2     
  10 C10            4.8789     1.9349    -0.0738 C.2     
  11 O11            5.2644     3.0909    -0.0809 O.2     
  12 C12            7.2591     1.0628     0.2436 C.2     
  13 O13            7.7286     2.3265     0.2421 O.3     
  14 O14            8.0268     0.1294     0.3748 O.2     
  15 C15            3.5837    -2.1382    -0.0406 C.3     
  16 C16            3.4403    -2.6321    -1.4571 C.ar    
  17 C17            4.5225    -2.5815    -2.3197 C.ar    
  18 C18            4.3925    -3.0345    -3.6206 C.ar    
  19 C19            3.1764    -3.5394    -4.0593 C.ar    
  20 C20            2.0935    -3.5883    -3.1908 C.ar    
  21 C21            2.2300    -3.1401    -1.8917 C.ar    
  22 N22            3.0412    -3.9984    -5.3757 N.pl3   
  23 F23            1.3402    -1.3768    -0.3338 F       
  24 C24            3.4189    -3.3027    -6.4956 C.2     
  25 C25            3.1519    -4.0256    -7.5952 C.2     
  26 C26            2.5560    -5.2844    -7.1455 C.ar    
  27 C27            2.5162    -5.2142    -5.7371 C.ar    
  28 F28            5.7054    -2.0893    -1.8911 F       
  29 F29            2.8532     3.9002    -0.3943 F       
  30 C30            2.0724    -6.4270    -7.7797 C.ar    
  31 N31            1.5823    -7.4191    -7.0650 N.ar    
  32 C32            1.5280    -7.3773    -5.7438 C.ar    
  33 C33            1.9872    -6.2983    -5.0406 C.ar    
  34 H34            0.4109     3.0186    -0.6400 H       
  35 H35           -0.2597     0.6539    -0.6086 H       
  36 H36            6.0161    -1.2983     0.2035 H       
  37 H37            8.6830     2.4404     0.3483 H       
  38 H38            4.3222    -2.7454     0.4829 H       
  39 H39            2.6234    -2.2140     0.4696 H       
  40 H40            5.2361    -2.9949    -4.2938 H       
  41 H41            1.1462    -3.9805    -3.5302 H       
  42 H42            1.3877    -3.1783    -1.2168 H       
  43 H43            3.8650    -2.3191    -6.4933 H       
  44 H44            3.3407    -3.7333    -8.6177 H       
  45 H45            2.0991    -6.4991    -8.8569 H       
  46 H46            1.1160    -8.2190    -5.2070 H       
  47 H47            1.9342    -6.2839    -3.9620 H       
@<TRIPOS>BOND
   1    1    2 ar
   2    1    6 ar
   3    1   34 1
   4    2    3 ar
   5    2   35 1
   6    3    4 ar
   7    3   23 1
   8    4    5 ar
   9    4    7 1
  10    5    6 ar
  11    5   10 1
  12    6   29 1
  13    7    8 1
  14    7   15 1
  15    8    9 2
  16    8   36 1
  17    9   10 1
  18    9   12 1
  19   10   11 2
  20   12   13 1
  21   12   14 2
  22   13   37 1
  23   15   16 1
  24   15   38 1
  25   15   39 1
  26   16   17 ar
  27   16   21 ar
  28   17   18 ar
  29   17   28 1
  30   18   19 ar
  31   18   40 1
  32   19   20 ar
  33   19   22 1
  34   20   21 ar
  35   20   41 1
  36   21   42 1
  37   22   24 1
  38   22   27 1
  39   24   25 2
  40   24   43 1
  41   25   26 1
  42   25   44 1
  43   26   27 ar
  44   26   30 ar
  45   27   33 ar
  46   30   31 ar
  47   30   45 1
  48   31   32 ar
  49   32   33 ar
  50   32   46 1
  51   33   47 1

#	End of record

