#	Name: ASD01882206
#	Creating user name:	WinNT
#	Creation time:	15. 06. 2019 19:44

#	Modifying user name:	WinNT
#	Modification time:	15. 06. 2019 19:44

#	Program:	/corina/corina34_cracker 3.40 0067  02.08.2006

@<TRIPOS>MOLECULE
ASD01882206
  49   51    0    0    0
SMALL
NO_CHARGES


@<TRIPOS>ATOM
   1 C1            -0.0184     1.5085     0.0103 C.2     
   2 C2             0.0021    -0.0041     0.0020 C.3     
   3 C3             0.9268    -0.4849     1.1252 C.3     
   4 C4             2.3021     0.1650     0.9644 C.3     
   5 C5             2.1811     1.6813     1.1249 C.3     
   6 C6             1.3035     2.2437     0.0017 C.3     
   7 O7            -1.0635     2.1135     0.0186 O.2     
   8 N8             3.2118    -0.3616     1.9849 N.pl3   
   9 C9             4.5842    -0.3547     1.7629 C.ar    
  10 C10            5.4488    -0.8559     2.7344 C.ar    
  11 C11            6.8080    -0.8498     2.5160 C.ar    
  12 C12            7.3197    -0.3410     1.3202 C.ar    
  13 C13            6.4513     0.1604     0.3488 C.ar    
  14 C14            5.0926     0.1474     0.5684 C.ar    
  15 O15            9.5646     0.1475    -0.0908 O.3     
  16 B16            8.8694    -0.3324     1.0688 Du      
  17 O17            9.9006    -0.8023     1.9487 O.3     
  18 C18           10.9631     0.1653     1.8157 C.3     
  19 C19           10.7353     0.8092     0.4329 C.3     
  20 C20           11.9403     0.5597    -0.4763 C.3     
  21 C21           10.4784     2.3103     0.5797 C.3     
  22 C22           10.8637     1.2212     2.9184 C.3     
  23 C23           12.3256    -0.5293     1.8624 C.3     
  24 Cl24           4.8116    -1.4876     4.2206 Cl      
  25 H25           -1.0055    -0.3848     0.1691 H       
  26 H26            0.3764    -0.3599    -0.9579 H       
  27 H27            0.5031    -0.2052     2.0898 H       
  28 H28            1.0286    -1.5689     1.0733 H       
  29 H29            2.6977    -0.0642    -0.0251 H       
  30 H30            1.7276     1.9098     2.0894 H       
  31 H31            3.1719     2.1326     1.0727 H       
  32 H32            1.7983     2.0960    -0.9583 H       
  33 H33            1.1321     3.3071     0.1685 H       
  34 H34            2.8566    -0.7150     2.8155 H       
  35 H35            7.4782    -1.2378     3.2689 H       
  36 H36            6.8453     0.5542    -0.5764 H       
  37 H37            4.4206     0.5309    -0.1851 H       
  38 H38           11.7397     0.9700    -1.4660 H       
  39 H39           12.8207     1.0439    -0.0538 H       
  40 H40           12.1188    -0.5125    -0.5569 H       
  41 H41            9.6279     2.4702     1.2424 H       
  42 H42           11.3619     2.7908     0.9999 H       
  43 H43           10.2622     2.7393    -0.3988 H       
  44 H44           10.9690     0.7415     3.8915 H       
  45 H45           11.6566     1.9578     2.7887 H       
  46 H46            9.8945     1.7167     2.8607 H       
  47 H47           12.3854    -1.2661     1.0614 H       
  48 H48           13.1154     0.2110     1.7350 H       
  49 H49           12.4465    -1.0277     2.8242 H       
@<TRIPOS>BOND
   1    1    2 1
   2    1    6 1
   3    1    7 2
   4    2    3 1
   5    2   25 1
   6    2   26 1
   7    3    4 1
   8    3   27 1
   9    3   28 1
  10    4    5 1
  11    4    8 1
  12    4   29 1
  13    5    6 1
  14    5   30 1
  15    5   31 1
  16    6   32 1
  17    6   33 1
  18    8    9 1
  19    8   34 1
  20    9   10 ar
  21    9   14 ar
  22   10   11 ar
  23   10   24 1
  24   11   12 ar
  25   11   35 1
  26   12   13 ar
  27   12   16 1
  28   13   14 ar
  29   13   36 1
  30   14   37 1
  31   15   16 1
  32   15   19 1
  33   16   17 1
  34   17   18 1
  35   18   19 1
  36   18   22 1
  37   18   23 1
  38   19   20 1
  39   19   21 1
  40   20   38 1
  41   20   39 1
  42   20   40 1
  43   21   41 1
  44   21   42 1
  45   21   43 1
  46   22   44 1
  47   22   45 1
  48   22   46 1
  49   23   47 1
  50   23   48 1
  51   23   49 1

#	End of record

