#	Name: ASD04880312
#	Creating user name:	WinNT
#	Creation time:	15. 06. 2019 20:53

#	Modifying user name:	WinNT
#	Modification time:	15. 06. 2019 20:53

#	Program:	/corina/corina34_cracker 3.40 0067  02.08.2006

@<TRIPOS>MOLECULE
ASD04880312
  39   42    0    0    0
SMALL
NO_CHARGES


@<TRIPOS>ATOM
   1 C1            -0.0144     1.2118     0.0087 C.2     
   2 O2             0.0435    -0.0026     0.0315 O.2     
   3 N3             1.1186     1.9395    -0.0483 N.am    
   4 N4             1.1862     3.3239    -0.1911 N.2     
   5 C5             2.3866     3.7921    -0.2192 C.2     
   6 C6             3.3751     2.6559    -0.0842 C.3     
   7 C7             2.4860     1.4024     0.0364 C.3     
   8 C8             2.2456     9.6996    -0.8394 C.2     
   9 N9             1.3527     8.6776    -0.7477 N.pl3   
  10 C10            2.0784     7.5097    -0.6127 C.ar    
  11 C11            3.4327     7.8906    -0.6291 C.ar    
  12 N12            3.4612     9.2399    -0.7701 N.2     
  13 C13            1.7362     6.1748    -0.4790 C.ar    
  14 C14            2.7412     5.2154    -0.3619 C.ar    
  15 C15            4.0883     5.6026    -0.3791 C.ar    
  16 C16            4.4291     6.9155    -0.5100 C.ar    
  17 C17           -0.1073     8.7938    -0.7845 C.3     
  18 C18           -1.3274     1.8896     0.0373 C.ar    
  19 C19           -2.5036     1.1433    -0.0542 C.ar    
  20 C20           -3.7276     1.7836    -0.0268 C.ar    
  21 C21           -3.7877     3.1632     0.0907 C.ar    
  22 C22           -2.6249     3.9066     0.1812 C.ar    
  23 C23           -1.3967     3.2782     0.1617 C.ar    
  24 F24           -4.8675     1.0638    -0.1152 F       
  25 H25            4.0101     2.5945    -0.9680 H       
  26 H26            3.9796     2.7798     0.8142 H       
  27 H27            2.6451     0.9080     0.9947 H       
  28 H28            2.6801     0.7158    -0.7875 H       
  29 H29            1.9839    10.7408    -0.9572 H       
  30 H30            0.6978     5.8785    -0.4656 H       
  31 H31            4.8621     4.8547    -0.2876 H       
  32 H32            5.4699     7.2038    -0.5222 H       
  33 H33           -0.4521     8.7154    -1.8155 H       
  34 H34           -0.5504     7.9938    -0.1913 H       
  35 H35           -0.4054     9.7585    -0.3739 H       
  36 H36           -2.4569     0.0682    -0.1465 H       
  37 H37           -4.7465     3.6599     0.1114 H       
  38 H38           -2.6785     4.9814     0.2723 H       
  39 H39           -0.4901     3.8602     0.2377 H       
@<TRIPOS>BOND
   1    1    2 2
   2    1    3 am
   3    1   18 1
   4    3    4 1
   5    3    7 1
   6    4    5 2
   7    5    6 1
   8    5   14 1
   9    6    7 1
  10    6   25 1
  11    6   26 1
  12    7   27 1
  13    7   28 1
  14    8    9 1
  15    8   12 2
  16    8   29 1
  17    9   10 1
  18    9   17 1
  19   10   11 ar
  20   10   13 ar
  21   11   12 1
  22   11   16 ar
  23   13   14 ar
  24   13   30 1
  25   14   15 ar
  26   15   16 ar
  27   15   31 1
  28   16   32 1
  29   17   33 1
  30   17   34 1
  31   17   35 1
  32   18   19 ar
  33   18   23 ar
  34   19   20 ar
  35   19   36 1
  36   20   21 ar
  37   20   24 1
  38   21   22 ar
  39   21   37 1
  40   22   23 ar
  41   22   38 1
  42   23   39 1

#	End of record

