#	Name: ASD01915220
#	Creating user name:	WinNT
#	Creation time:	15. 06. 2019 20:05

#	Modifying user name:	WinNT
#	Modification time:	15. 06. 2019 20:05

#	Program:	/corina/corina34_cracker 3.40 0067  02.08.2006

@<TRIPOS>MOLECULE
ASD01915220
  39   41    0    0    0
SMALL
NO_CHARGES


@<TRIPOS>ATOM
   1 C1            -0.0169     1.3923     0.0097 C.ar    
   2 C2             0.0021    -0.0041     0.0020 C.ar    
   3 C3            -1.1847    -0.7146     0.0090 C.ar    
   4 C4            -2.3958    -0.0477     0.0241 C.ar    
   5 C5            -2.4270     1.3492     0.0324 C.ar    
   6 C6            -1.2343     2.0700     0.0308 C.ar    
   7 F7            -1.1603    -2.0653     0.0006 F       
   8 C8             1.2523     2.1501     0.0016 C.2     
   9 N9             2.4292     1.4934    -0.0131 N.am    
  10 O10            1.2346     3.3656     0.0083 O.2     
  11 C11            3.6217     2.2055    -0.0207 C.2     
  12 S12            3.7442     3.9107    -0.0121 S.3     
  13 C13            5.5020     3.7951    -0.0299 C.2     
  14 C14            5.8316     2.5021    -0.0406 C.2     
  15 N15            4.8041     1.6737    -0.0297 N.2     
  16 C16            7.2614     2.0261    -0.0581 C.3     
  17 C17            7.7700     1.9923    -1.5007 C.3     
  18 C18            9.2215     1.5090    -1.5186 C.3     
  19 C19           10.0873     2.4645    -0.6948 C.3     
  20 C20            9.5787     2.4982     0.7478 C.3     
  21 C21            8.1271     2.9815     0.7656 C.3     
  22 C22           -3.6819     2.0387     0.0480 C.1     
  23 N23           -4.6775     2.5857     0.0605 N.1     
  24 H24            0.9452    -0.5302    -0.0098 H       
  25 H25           -3.3194    -0.6075     0.0292 H       
  26 H26           -1.2536     3.1498     0.0371 H       
  27 H27            2.4434     0.5235    -0.0185 H       
  28 H28            6.1923     4.6257    -0.0319 H       
  29 H29            7.3164     1.0252     0.3700 H       
  30 H30            7.1532     1.3116    -2.0876 H       
  31 H31            7.7149     2.9931    -1.9289 H       
  32 H32            9.2765     0.5082    -1.0904 H       
  33 H33            9.5839     1.4850    -2.5463 H       
  34 H34           11.1214     2.1202    -0.7075 H       
  35 H35           10.0322     3.4653    -1.1230 H       
  36 H36            9.6337     1.4974     1.1760 H       
  37 H37           10.1954     3.1789     1.3346 H       
  38 H38            8.0721     3.9824     0.3374 H       
  39 H39            7.7648     3.0056     1.7933 H       
@<TRIPOS>BOND
   1    1    2 ar
   2    1    8 1
   3    1    6 ar
   4    2    3 ar
   5    2   24 1
   6    3    4 ar
   7    3    7 1
   8    4    5 ar
   9    4   25 1
  10    5    6 ar
  11    5   22 1
  12    6   26 1
  13    8    9 am
  14    8   10 2
  15    9   11 1
  16    9   27 1
  17   11   12 1
  18   11   15 2
  19   12   13 1
  20   13   14 2
  21   13   28 1
  22   14   15 1
  23   14   16 1
  24   16   17 1
  25   16   21 1
  26   16   29 1
  27   17   18 1
  28   17   30 1
  29   17   31 1
  30   18   19 1
  31   18   32 1
  32   18   33 1
  33   19   20 1
  34   19   34 1
  35   19   35 1
  36   20   21 1
  37   20   36 1
  38   20   37 1
  39   21   38 1
  40   21   39 1
  41   22   23 3

#	End of record

