#	Name: ASD01810929
#	Creating user name:	WinNT
#	Creation time:	15. 06. 2019 19:25

#	Modifying user name:	WinNT
#	Modification time:	15. 06. 2019 19:25

#	Program:	/corina/corina34_cracker 3.40 0067  02.08.2006

@<TRIPOS>MOLECULE
ASD01810929
  46   48    0    0    0
SMALL
NO_CHARGES


@<TRIPOS>ATOM
   1 C1             0.1347     1.4687    -0.1366 C.2     
   2 C2             0.0759    -0.0061    -0.0691 C.ar    
   3 C3             1.2555    -0.7513     0.0065 C.ar    
   4 C4             1.2017    -2.1291     0.0701 C.ar    
   5 C5            -0.0164    -2.7802     0.0594 C.ar    
   6 C6            -1.2025    -2.0479    -0.0159 C.ar    
   7 C7            -1.1564    -0.6571    -0.0750 C.ar    
   8 O8             1.2093     2.0348    -0.1263 O.2     
   9 O9            -1.0034     2.1852    -0.2150 O.3     
  10 N10           -3.9559    -4.3015    -0.0877 N.2     
  11 N11           -2.6962    -4.0459    -0.1033 N.2     
  12 C12           -2.5062    -2.7475    -0.0272 C.2     
  13 N13           -3.7431    -2.1657     0.0399 N.pl3   
  14 C14           -4.6374    -3.1906    -0.0015 C.2     
  15 C15           -6.1386    -3.0665     0.0438 C.3     
  16 C16           -6.7457    -3.7747    -1.1690 C.3     
  17 C17            2.5890    -0.0494     0.0183 C.3     
  18 C18            2.9720     0.3417    -1.4104 C.3     
  19 C19           -0.0650    -4.2848     0.1286 C.3     
  20 C20            0.5143    -4.9778    -1.1160 C.3     
  21 C21            1.1429    -6.0019    -0.1564 C.3     
  22 C22            1.1004    -4.9031     0.9186 C.3     
  23 C23           -0.8698     3.6297    -0.2781 C.3     
  24 H24            2.1163    -2.7006     0.1281 H       
  25 H25           -2.0714    -0.0859    -0.1288 H       
  26 H26           -3.9414    -1.2183     0.1041 H       
  27 H27           -6.5137    -3.5261     0.9582 H       
  28 H28           -6.4168    -2.0128     0.0261 H       
  29 H29           -6.4674    -4.8285    -1.1513 H       
  30 H30           -7.8315    -3.6850    -1.1363 H       
  31 H31           -6.3705    -3.3152    -2.0835 H       
  32 H32            2.5224     0.8470     0.6349 H       
  33 H33            3.3472    -0.7167     0.4280 H       
  34 H34            3.9365     0.8494    -1.4019 H       
  35 H35            3.0387    -0.5546    -2.0271 H       
  36 H36            2.2138     1.0090    -1.8201 H       
  37 H37           -1.0437    -4.6635     0.4234 H       
  38 H38           -0.2451    -5.4031    -1.7722 H       
  39 H39            1.2471    -4.3736    -1.6508 H       
  40 H40            0.4951    -6.8511     0.0614 H       
  41 H41            2.1532    -6.2999    -0.4365 H       
  42 H42            1.9934    -4.2785     0.9400 H       
  43 H43            0.8142    -5.2682     1.9050 H       
  44 H44           -0.2903     3.9028    -1.1600 H       
  45 H45           -1.8589     4.0837    -0.3384 H       
  46 H46           -0.3599     3.9868     0.6166 H       
@<TRIPOS>BOND
   1    1    2 1
   2    1    8 2
   3    1    9 1
   4    2    3 ar
   5    2    7 ar
   6    3    4 ar
   7    3   17 1
   8    4    5 ar
   9    4   24 1
  10    5    6 ar
  11    5   19 1
  12    6    7 ar
  13    6   12 1
  14    7   25 1
  15    9   23 1
  16   10   11 1
  17   10   14 2
  18   11   12 2
  19   12   13 1
  20   13   14 1
  21   13   26 1
  22   14   15 1
  23   15   16 1
  24   15   27 1
  25   15   28 1
  26   16   29 1
  27   16   30 1
  28   16   31 1
  29   17   18 1
  30   17   32 1
  31   17   33 1
  32   18   34 1
  33   18   35 1
  34   18   36 1
  35   19   20 1
  36   19   22 1
  37   19   37 1
  38   20   21 1
  39   20   38 1
  40   20   39 1
  41   21   22 1
  42   21   40 1
  43   21   41 1
  44   22   42 1
  45   22   43 1
  46   23   44 1
  47   23   45 1
  48   23   46 1

#	End of record

