#	Name: ASD01940480
#	Creating user name:	WinNT
#	Creation time:	15. 06. 2019 20:12

#	Modifying user name:	WinNT
#	Modification time:	15. 06. 2019 20:12

#	Program:	/corina/corina34_cracker 3.40 0067  02.08.2006

@<TRIPOS>MOLECULE
ASD01940480
  53   55    0    0    0
SMALL
NO_CHARGES


@<TRIPOS>ATOM
   1 S1             1.8905     2.5112     2.7391 S.3     
   2 N2             2.3472     1.0013     3.3611 N.2     
   3 C3             2.9241     0.3325     2.4235 C.2     
   4 C4             3.0623     0.9223     1.1556 C.ar    
   5 C5             2.5178     2.2203     1.1130 C.ar    
   6 C6             2.5486     2.9839    -0.0504 C.ar    
   7 C7             3.1125     2.4862    -1.1852 C.ar    
   8 C8             3.6675     1.1956    -1.1872 C.ar    
   9 C9             3.6477     0.4127    -0.0309 C.ar    
  10 C10            4.2745     0.6651    -2.4160 C.2     
  11 O11            4.8430    -0.4093    -2.3984 O.2     
  12 O12            4.2008     1.3700    -3.5629 O.3     
  13 N13            4.1975    -0.8570    -0.0432 N.pl3   
  14 C14            3.3796    -1.9712    -0.2572 C.ar    
  15 C15            3.9431    -3.2380    -0.3734 C.ar    
  16 C16            3.1308    -4.3365    -0.5849 C.ar    
  17 C17            1.7602    -4.1763    -0.6808 C.ar    
  18 C18            1.1981    -2.9186    -0.5656 C.ar    
  19 C19            2.0031    -1.8166    -0.3485 C.ar    
  20 Si20           0.6662    -5.6631    -0.9672 Si      
  21 C21            0.1547    -6.3829     0.6732 C.3     
  22 C22           -0.8499    -5.1446    -1.9177 C.3     
  23 C23            1.6027    -6.9445    -1.9427 C.3     
  24 F24            5.2818    -3.3942    -0.2801 F       
  25 C25            4.8225     0.7850    -4.7374 C.3     
  26 C26            4.1690    -0.5645    -5.0416 C.3     
  27 C27            4.6377     1.7221    -5.9325 C.3     
  28 C28            6.3161     0.5808    -4.4755 C.3     
  29 H29            3.2956    -0.6646     2.6088 H       
  30 H30            2.1226     3.9764    -0.0529 H       
  31 H31            3.1328     3.0837    -2.0847 H       
  32 H32            5.1502    -0.9743     0.0965 H       
  33 H33            3.5668    -5.3204    -0.6756 H       
  34 H34            0.1276    -2.7976    -0.6415 H       
  35 H35            1.5620    -0.8353    -0.2543 H       
  36 H36           -0.3932    -5.6332     1.2440 H       
  37 H37           -0.4837    -7.2505     0.5061 H       
  38 H38            1.0417    -6.6862     1.2293 H       
  39 H39           -0.5506    -4.7234    -2.8775 H       
  40 H40           -1.4882    -6.0121    -2.0848 H       
  41 H41           -1.3978    -4.3949    -1.3469 H       
  42 H42            2.4898    -7.2478    -1.3866 H       
  43 H43            0.9644    -7.8120    -2.1099 H       
  44 H44            1.9020    -6.5233    -2.9025 H       
  45 H45            3.1049    -0.4191    -5.2281 H       
  46 H46            4.6357    -1.0037    -5.9233 H       
  47 H47            4.3006    -1.2322    -4.1901 H       
  48 H48            5.1034     2.6836    -5.7158 H       
  49 H49            5.1045     1.2829    -6.8142 H       
  50 H50            3.5737     1.8676    -6.1191 H       
  51 H51            6.4478    -0.0868    -3.6240 H       
  52 H52            6.7828     0.1416    -5.3572 H       
  53 H53            6.7817     1.5422    -4.2588 H       
@<TRIPOS>BOND
   1    1    2 1
   2    1    5 1
   3    2    3 2
   4    3    4 1
   5    3   29 1
   6    4    5 ar
   7    4    9 ar
   8    5    6 ar
   9    6    7 ar
  10    6   30 1
  11    7    8 ar
  12    7   31 1
  13    8    9 ar
  14    8   10 1
  15    9   13 1
  16   10   11 2
  17   10   12 1
  18   12   25 1
  19   13   14 1
  20   13   32 1
  21   14   15 ar
  22   14   19 ar
  23   15   16 ar
  24   15   24 1
  25   16   17 ar
  26   16   33 1
  27   17   18 ar
  28   17   20 1
  29   18   19 ar
  30   18   34 1
  31   19   35 1
  32   20   21 1
  33   20   22 1
  34   20   23 1
  35   21   36 1
  36   21   37 1
  37   21   38 1
  38   22   39 1
  39   22   40 1
  40   22   41 1
  41   23   42 1
  42   23   43 1
  43   23   44 1
  44   25   26 1
  45   25   28 1
  46   25   27 1
  47   26   45 1
  48   26   46 1
  49   26   47 1
  50   27   48 1
  51   27   49 1
  52   27   50 1
  53   28   51 1
  54   28   52 1
  55   28   53 1

#	End of record

