#	Name: ASD00844304
#	Creating user name:	WinNT
#	Creation time:	15. 06. 2019 18:49

#	Modifying user name:	WinNT
#	Modification time:	15. 06. 2019 18:49

#	Program:	/corina/corina34_cracker 3.40 0067  02.08.2006

@<TRIPOS>MOLECULE
ASD00844304
  87   92    0    0    0
SMALL
NO_CHARGES


@<TRIPOS>ATOM
   1 F1            -0.0933    -3.1421     4.7167 F       
   2 C2            -0.0065     1.3877     0.0272 C.ar    
   3 C3             0.0087     0.0007     0.0135 C.ar    
   4 C4             1.2190    -0.6774    -0.0051 C.ar    
   5 C5             2.4055     0.0297    -0.0100 C.ar    
   6 C6             2.3878     1.4124     0.0042 C.ar    
   7 C7             1.1831     2.0904     0.0223 C.ar    
   8 C8             1.2391    -2.1842    -0.0195 C.3     
   9 C9             0.4942    -2.7130    -1.2267 C.2     
  10 N10            2.6184    -2.6779    -0.0108 N.am    
  11 C11            3.4634    -2.3342    -1.0029 C.2     
  12 N12            4.7590    -2.7005    -0.9417 N.am    
  13 O13            3.0570    -1.6938    -1.9532 O.2     
  14 C14            5.2968    -3.3773     0.2482 C.3     
  15 C15            6.0334    -4.6430    -0.2029 C.3     
  16 N16            7.0320    -4.2883    -1.2202 N.3     
  17 C17            6.3944    -3.7368    -2.4232 C.3     
  18 C18            5.6712    -2.4393    -2.0655 C.3     
  19 C19            7.8763    -5.4431    -1.5542 C.3     
  20 C20            8.8194    -5.0724    -2.7022 C.3     
  21 C21            9.7376    -6.2587    -3.0049 C.3     
  22 N22           10.5102    -6.6002    -1.8037 N.3     
  23 C23            9.6278    -7.0051    -0.7020 C.3     
  24 C24            8.7063    -5.8411    -0.3306 C.3     
  25 C25           11.5019    -7.6442    -2.0948 C.3     
  26 O26            0.7732    -2.5127    -2.3899 O.2     
  27 N27           -0.5336    -3.4465    -0.7674 N.am    
  28 C28            0.4690    -2.7353     1.1585 C.ar    
  29 C29           -0.5770    -3.4799     0.6280 C.ar    
  30 C30            0.6339    -2.6203     2.5204 C.ar    
  31 C31           -0.2509    -3.2526     3.3795 C.ar    
  32 C32           -1.2981    -3.9980     2.8620 C.ar    
  33 C33           -1.4634    -4.1133     1.4960 C.ar    
  34 Cl34          -2.4076    -4.7908     3.9363 Cl      
  35 C35           -0.9914    -5.8358    -2.0543 C.ar    
  36 C36           -1.3179    -6.8795    -1.2082 C.ar    
  37 C37           -0.1737    -6.0584    -3.1468 C.ar    
  38 C38            0.3191    -7.3248    -3.3956 C.ar    
  39 C39           -0.0071    -8.3736    -2.5481 C.ar    
  40 C40           -0.8274    -8.1476    -1.4523 C.ar    
  41 O41            0.4761    -9.6204    -2.7910 O.3     
  42 H42           -1.9568    -6.7031    -0.3555 H       
  43 C43            0.0989   -10.6518    -1.8767 C.3     
  44 O44           -1.1601    -0.6928     0.0188 O.3     
  45 C45           -2.3676     0.0711     0.0386 C.3     
  46 C46           -3.5698    -0.8754     0.0418 C.3     
  47 F47           -3.5400    -1.6708    -1.1087 F       
  48 F48           -3.5165    -1.6931     1.1756 F       
  49 S49           -1.6241    -4.2210    -1.7438 S.o2    
  50 O50           -2.8034    -4.3940    -0.9701 O.2     
  51 O51           -1.6050    -3.5363    -2.9889 O.2     
  52 H52           -0.9473     1.9178     0.0372 H       
  53 H53            3.3479    -0.4976    -0.0244 H       
  54 H54            3.3165     1.9635     0.0011 H       
  55 H55            1.1719     3.1703     0.0333 H       
  56 H56            2.9235    -3.2521     0.7090 H       
  57 H57            5.9909    -2.7140     0.7644 H       
  58 H58            4.4792    -3.6479     0.9164 H       
  59 H59            6.5318    -5.0983     0.6529 H       
  60 H60            5.3183    -5.3488    -0.6257 H       
  61 H61            7.1548    -3.5348    -3.1777 H       
  62 H62            5.6744    -4.4551    -2.8151 H       
  63 H63            5.1028    -2.0877    -2.9265 H       
  64 H64            6.3993    -1.6837    -1.7705 H       
  65 H65            7.2463    -6.2798    -1.8561 H       
  66 H66            8.2347    -4.8292    -3.5894 H       
  67 H67            9.4213    -4.2104    -2.4148 H       
  68 H68            9.1357    -7.1163    -3.3056 H       
  69 H69           10.4199    -5.9931    -3.8123 H       
  70 H70            9.0265    -7.8592    -1.0135 H       
  71 H71           10.2304    -7.2816     0.1631 H       
  72 H72            9.3065    -4.9911    -0.0059 H       
  73 H73            8.0409    -6.1470     0.4766 H       
  74 H74           12.1888    -7.2888    -2.8629 H       
  75 H75           12.0601    -7.8780    -1.1883 H       
  76 H76           10.9926    -8.5403    -2.4493 H       
  77 H77            1.4519    -2.0384     2.9188 H       
  78 H78           -2.2818    -4.6960     1.0997 H       
  79 H79            0.0797    -5.2417    -3.8064 H       
  80 H80            0.9575    -7.4982    -4.2493 H       
  81 H81           -1.0830    -8.9625    -0.7914 H       
  82 H82            0.5513   -11.5943    -2.1853 H       
  83 H83            0.4440   -10.3939    -0.8754 H       
  84 H84           -0.9863   -10.7541    -1.8718 H       
  85 H85           -2.3908     0.6908     0.9350 H       
  86 H86           -2.4091     0.7082    -0.8448 H       
  87 H87           -4.4908    -0.2927     0.0569 H       
@<TRIPOS>BOND
   1    1   31 1
   2    2    3 ar
   3    2    7 ar
   4    2   52 1
   5    3    4 ar
   6    3   44 1
   7    4    5 ar
   8    4    8 1
   9    5    6 ar
  10    5   53 1
  11    6    7 ar
  12    6   54 1
  13    7   55 1
  14    8    9 1
  15    8   10 1
  16    8   28 1
  17    9   26 2
  18    9   27 am
  19   10   11 am
  20   10   56 1
  21   11   12 am
  22   11   13 2
  23   12   14 1
  24   12   18 1
  25   14   15 1
  26   14   57 1
  27   14   58 1
  28   15   16 1
  29   15   59 1
  30   15   60 1
  31   16   17 1
  32   16   19 1
  33   17   18 1
  34   17   61 1
  35   17   62 1
  36   18   63 1
  37   18   64 1
  38   19   20 1
  39   19   24 1
  40   19   65 1
  41   20   21 1
  42   20   66 1
  43   20   67 1
  44   21   22 1
  45   21   68 1
  46   21   69 1
  47   22   23 1
  48   22   25 1
  49   23   24 1
  50   23   70 1
  51   23   71 1
  52   24   72 1
  53   24   73 1
  54   25   74 1
  55   25   75 1
  56   25   76 1
  57   27   49 am
  58   27   29 1
  59   28   29 ar
  60   28   30 ar
  61   29   33 ar
  62   30   31 ar
  63   30   77 1
  64   31   32 ar
  65   32   33 ar
  66   32   34 1
  67   33   78 1
  68   35   36 ar
  69   35   37 ar
  70   35   49 1
  71   36   42 1
  72   36   40 ar
  73   37   38 ar
  74   37   79 1
  75   38   39 ar
  76   38   80 1
  77   39   40 ar
  78   39   41 1
  79   40   81 1
  80   41   43 1
  81   43   82 1
  82   43   83 1
  83   43   84 1
  84   44   45 1
  85   45   46 1
  86   45   85 1
  87   45   86 1
  88   46   47 1
  89   46   48 1
  90   46   87 1
  91   49   50 2
  92   49   51 2

#	End of record

