#	Name: ASD03092746
#	Creating user name:	WinNT
#	Creation time:	15. 06. 2019 20:33

#	Modifying user name:	WinNT
#	Modification time:	15. 06. 2019 20:33

#	Program:	/corina/corina34_cracker 3.40 0067  02.08.2006

@<TRIPOS>MOLECULE
ASD03092746
  47   47    0    0    0
SMALL
NO_CHARGES


@<TRIPOS>ATOM
   1 C1            -0.4109     1.8113    -0.6373 C.ar    
   2 C2            -0.7170     0.5022    -0.9585 C.ar    
   3 C3            -2.0097     0.1607    -1.3094 C.ar    
   4 C4            -2.9965     1.1284    -1.3387 C.ar    
   5 C5            -2.6905     2.4374    -1.0165 C.ar    
   6 C6            -1.3987     2.7780    -0.6614 C.ar    
   7 C7             0.9985     2.1836    -0.2548 C.3     
   8 C8            -3.7661     3.4925    -1.0489 C.3     
   9 C9            -1.0652     4.2051    -0.3102 C.3     
  10 O10           -1.6297     3.5032     1.8664 O.2     
  11 C11           -1.2590     4.4168     1.1692 C.2     
  12 C12           -0.9902     5.7687     1.7785 C.3     
  13 N13           -1.3746     5.7520     3.1962 N.4     
  14 C14           -1.1520     7.0818     3.7795 C.3     
  15 C15           -1.5524     7.0644     5.2561 C.3     
  16 C16           -2.7952     5.3971     3.3142 C.3     
  17 C17           -0.5610     4.7607     3.9125 C.3     
  18 C18            0.9201     5.1167     3.7690 C.3     
  19 C19           -3.6395     6.4055     2.5325 C.3     
  20 H20            0.0539    -0.2539    -0.9357 H       
  21 H21           -2.2487    -0.8620    -1.5611 H       
  22 H22           -4.0063     0.8618    -1.6135 H       
  23 H23            1.5554     2.4645    -1.1487 H       
  24 H24            0.9767     3.0241     0.4389 H       
  25 H25            1.4826     1.3314     0.2221 H       
  26 H26           -4.2431     3.5551    -0.0708 H       
  27 H27           -3.3224     4.4561    -1.2991 H       
  28 H28           -4.5108     3.2293    -1.8001 H       
  29 H29           -0.0279     4.4112    -0.5740 H       
  30 H30           -1.7211     4.8780    -0.8626 H       
  31 H31            0.0712     6.0014     1.6925 H       
  32 H32           -1.5719     6.5262     1.2531 H       
  33 H33           -0.0980     7.3452     3.6919 H       
  34 H34           -1.7557     7.8174     3.2480 H       
  35 H35           -1.3873     8.0511     5.6889 H       
  36 H36           -2.6065     6.8010     5.3437 H       
  37 H37           -0.9487     6.3288     5.7876 H       
  38 H38           -2.9549     4.3979     2.9089 H       
  39 H39           -3.0880     5.4144     4.3640 H       
  40 H40           -0.8340     4.7607     4.9677 H       
  41 H41           -0.7393     3.7714     3.4911 H       
  42 H42            1.1932     5.1167     2.7137 H       
  43 H43            1.0984     6.1060     4.1904 H       
  44 H44            1.5238     4.3811     4.3005 H       
  45 H45           -3.4798     7.4046     2.9378 H       
  46 H46           -3.3466     6.3881     1.4827 H       
  47 H47           -4.6935     6.1421     2.6200 H       
@<TRIPOS>BOND
   1    1    2 ar
   2    1    7 1
   3    1    6 ar
   4    2    3 ar
   5    2   20 1
   6    3    4 ar
   7    3   21 1
   8    4    5 ar
   9    4   22 1
  10    5    6 ar
  11    5    8 1
  12    6    9 1
  13    7   23 1
  14    7   24 1
  15    7   25 1
  16    8   26 1
  17    8   27 1
  18    8   28 1
  19    9   11 1
  20    9   29 1
  21    9   30 1
  22   10   11 2
  23   11   12 1
  24   12   13 1
  25   12   31 1
  26   12   32 1
  27   13   14 1
  28   13   16 1
  29   13   17 1
  30   14   15 1
  31   14   33 1
  32   14   34 1
  33   15   35 1
  34   15   36 1
  35   15   37 1
  36   16   19 1
  37   16   38 1
  38   16   39 1
  39   17   18 1
  40   17   40 1
  41   17   41 1
  42   18   42 1
  43   18   43 1
  44   18   44 1
  45   19   45 1
  46   19   46 1
  47   19   47 1

#	End of record

