#	Name: ASD08150267
#	Creating user name:	WinNT
#	Creation time:	15. 06. 2019 21:15

#	Modifying user name:	WinNT
#	Modification time:	15. 06. 2019 21:15

#	Program:	/corina/corina34_cracker 3.40 0067  02.08.2006

@<TRIPOS>MOLECULE
ASD08150267
  23   23    0    0    0
SMALL
NO_CHARGES


@<TRIPOS>ATOM
   1 C1            -0.0180     1.4730     0.0101 C.2     
   2 C2             0.0021    -0.0041     0.0020 C.ar    
   3 C3             0.0231    -0.7119     1.2057 C.ar    
   4 C4             0.0418    -2.0909     1.1908 C.ar    
   5 C5             0.0402    -2.7731    -0.0132 C.ar    
   6 C6             0.0194    -2.0782    -1.2093 C.ar    
   7 C7            -0.0057    -0.6988    -1.2089 C.ar    
   8 O8             1.0256     2.0947     0.0035 O.2     
   9 O9            -1.1936     2.1307     0.0193 O.3     
  10 N10           -0.0341     0.0430    -2.4895 N.pl3   
  11 O11           -0.0408    -0.5645    -3.5452 O.2     
  12 O12           -0.0507     1.2609    -2.4876 O.2     
  13 C13            0.0259     0.0294     2.5177 C.3     
  14 Br14          -1.8262     0.3271     3.1062 Br      
  15 C15           -1.1373     3.5816     0.0269 C.3     
  16 H16            0.0581    -2.6395     2.1209 H       
  17 H17            0.0556    -3.8530    -0.0192 H       
  18 H18            0.0183    -2.6168    -2.1454 H       
  19 H19            0.5549    -0.5598     3.2668 H       
  20 H20            0.5258     0.9897     2.3914 H       
  21 H21           -2.1501     3.9844     0.0339 H       
  22 H22           -0.6055     3.9199     0.9162 H       
  23 H23           -0.6140     3.9295    -0.8637 H       
@<TRIPOS>BOND
   1    1    2 1
   2    1    8 2
   3    1    9 1
   4    2    3 ar
   5    2    7 ar
   6    3    4 ar
   7    3   13 1
   8    4    5 ar
   9    4   16 1
  10    5    6 ar
  11    5   17 1
  12    6    7 ar
  13    6   18 1
  14    7   10 1
  15    9   15 1
  16   10   11 2
  17   10   12 2
  18   13   14 1
  19   13   19 1
  20   13   20 1
  21   15   21 1
  22   15   22 1
  23   15   23 1

#	End of record

