#	Name: ASD03910136
#	Creating user name:	WinNT
#	Creation time:	15. 06. 2019 20:47

#	Modifying user name:	WinNT
#	Modification time:	15. 06. 2019 20:47

#	Program:	/corina/corina34_cracker 3.40 0067  02.08.2006

@<TRIPOS>MOLECULE
ASD03910136
  43   45    0    0    0
SMALL
NO_CHARGES


@<TRIPOS>ATOM
   1 C1             0.0240     1.4174     0.0698 C.ar    
   2 N2            -0.0736     0.1041     0.0268 N.ar    
   3 C3             1.0018    -0.6713    -0.0475 C.ar    
   4 C4             2.2787    -0.1102    -0.0819 C.ar    
   5 C5             2.4091     1.2663    -0.0380 C.ar    
   6 C6             1.2584     2.0392     0.0389 C.ar    
   7 C7             0.8447    -2.1412    -0.0935 C.2     
   8 N8             0.1411    -2.8500    -1.0217 N.pl3   
   9 N9             0.2524    -4.2076    -0.6953 N.2     
  10 C10            0.9894    -4.3173     0.3810 C.2     
  11 C11            1.3829    -3.0411     0.7829 C.2     
  12 C12           -0.5985    -2.2919    -2.1565 C.3     
  13 C13            0.0487    -2.7536    -3.4638 C.3     
  14 C14           -2.0493    -2.7753    -2.1072 C.3     
  15 C15            3.4986    -0.9911    -0.1651 C.3     
  16 O16            4.6637    -0.1781    -0.3192 O.3     
  17 C17            5.8420    -0.8210    -0.5116 C.ar    
  18 C18            5.9014    -2.2036    -0.4354 C.ar    
  19 C19            7.1016    -2.8591    -0.6308 C.ar    
  20 C20            8.2559    -2.1452    -0.9048 C.ar    
  21 C21            8.2203    -0.7676    -0.9859 C.ar    
  22 C22            7.0074    -0.0890    -0.7949 C.ar    
  23 C23            6.9574     1.3735    -0.8848 C.2     
  24 O24            7.9663     2.0011    -1.1297 O.2     
  25 F25            9.3492    -0.0753    -1.2535 F       
  26 H26           -0.8729     2.0165     0.1255 H       
  27 H27            3.3844     1.7295    -0.0630 H       
  28 H28            1.3269     3.1164     0.0744 H       
  29 H29            1.2521    -5.2419     0.8734 H       
  30 H30            2.0015    -2.8057     1.6363 H       
  31 H31           -0.5762    -1.2033    -2.1048 H       
  32 H32           -0.4463    -2.2689    -4.3053 H       
  33 H33            1.1053    -2.4859    -3.4605 H       
  34 H34           -0.0519    -3.8350    -3.5569 H       
  35 H35           -2.5103    -2.4463    -1.1758 H       
  36 H36           -2.5996    -2.3600    -2.9515 H       
  37 H37           -2.0715    -3.8638    -2.1589 H       
  38 H38            3.5846    -1.5799     0.7481 H       
  39 H39            3.4063    -1.6596    -1.0211 H       
  40 H40            5.0069    -2.7700    -0.2222 H       
  41 H41            7.1398    -3.9367    -0.5691 H       
  42 H42            9.1886    -2.6686    -1.0554 H       
  43 H43            6.0223     1.8921    -0.7330 H       
@<TRIPOS>BOND
   1    1    2 ar
   2    1    6 ar
   3    1   26 1
   4    2    3 ar
   5    3    4 ar
   6    3    7 1
   7    4    5 ar
   8    4   15 1
   9    5    6 ar
  10    5   27 1
  11    6   28 1
  12    7    8 1
  13    7   11 2
  14    8    9 1
  15    8   12 1
  16    9   10 2
  17   10   11 1
  18   10   29 1
  19   11   30 1
  20   12   13 1
  21   12   14 1
  22   12   31 1
  23   13   32 1
  24   13   33 1
  25   13   34 1
  26   14   35 1
  27   14   36 1
  28   14   37 1
  29   15   16 1
  30   15   38 1
  31   15   39 1
  32   16   17 1
  33   17   18 ar
  34   17   22 ar
  35   18   19 ar
  36   18   40 1
  37   19   20 ar
  38   19   41 1
  39   20   21 ar
  40   20   42 1
  41   21   22 ar
  42   21   25 1
  43   22   23 1
  44   23   24 2
  45   23   43 1

#	End of record

