#	Name: ASD01940372
#	Creating user name:	WinNT
#	Creation time:	15. 06. 2019 20:12

#	Modifying user name:	WinNT
#	Modification time:	15. 06. 2019 20:12

#	Program:	/corina/corina34_cracker 3.40 0067  02.08.2006

@<TRIPOS>MOLECULE
ASD01940372
  55   57    0    0    0
SMALL
NO_CHARGES


@<TRIPOS>ATOM
   1 C1             2.5122    -1.7541    -3.6913 C.3     
   2 C2             1.2131    -2.0458    -2.9376 C.3     
   3 C3             0.3895    -3.0715    -3.7189 C.3     
   4 C4            -1.0018    -3.1914    -3.0937 C.3     
   5 S5             1.6030    -2.7084    -1.2946 S.o2    
   6 O6             0.4239    -3.1723    -0.6513 O.2     
   7 O7             2.7740    -3.5117    -1.3459 O.2     
   8 N8             2.0555    -1.3828    -0.4112 N.am    
   9 C9             1.2749    -0.9640     0.6717 C.ar    
  10 C10            1.8410    -0.8545     1.9353 C.ar    
  11 C11            1.0696    -0.4411     3.0036 C.ar    
  12 C12           -0.2703    -0.1357     2.8150 C.ar    
  13 C13           -0.8366    -0.2448     1.5535 C.ar    
  14 C14           -0.0654    -0.6521     0.4828 C.ar    
  15 O15           -1.0293     0.2704     3.8678 O.3     
  16 C16           -2.4013     0.5684     3.6017 C.3     
  17 C17            3.2202    -0.6807    -0.7482 C.ar    
  18 C18            3.1849     0.2931    -1.7459 C.ar    
  19 C19            4.3419     0.9856    -2.0757 C.ar    
  20 C20            5.5273     0.7075    -1.4132 C.ar    
  21 C21            5.5598    -0.2594    -0.4233 C.ar    
  22 C22            4.4091    -0.9486    -0.0865 C.ar    
  23 N23            1.9849     0.5715    -2.4140 N.pl3   
  24 C24            0.9487     1.2302    -1.7448 C.ar    
  25 C25           -0.2431     1.5086    -2.4070 C.ar    
  26 C26           -1.2648     2.1600    -1.7419 C.ar    
  27 C27           -1.1025     2.5350    -0.4197 C.ar    
  28 C28            0.0810     2.2592     0.2402 C.ar    
  29 C29            1.1043     1.6029    -0.4167 C.ar    
  30 I30           -2.6532     3.5232     0.5842 I       
  31 F31           -0.4010     1.1433    -3.6981 F       
  32 F32            6.6533     1.3813    -1.7346 F       
  33 F33            4.3127     1.9295    -3.0418 F       
  34 H34            3.0774    -2.6782    -3.8124 H       
  35 H35            2.2782    -1.3402    -4.6722 H       
  36 H36            3.1067    -1.0360    -3.1264 H       
  37 H37            0.6401    -1.1247    -2.8313 H       
  38 H38            0.2953    -2.7483    -4.7556 H       
  39 H39            0.8881    -4.0402    -3.6842 H       
  40 H40           -1.5751    -3.9505    -3.6258 H       
  41 H41           -0.9060    -3.4764    -2.0460 H       
  42 H42           -1.5154    -2.2325    -3.1639 H       
  43 H43            2.8840    -1.0928     2.0825 H       
  44 H44            1.5096    -0.3558     3.9862 H       
  45 H45           -1.8800    -0.0072     1.4078 H       
  46 H46           -0.5054    -0.7327    -0.5002 H       
  47 H47           -2.8912     0.8794     4.5244 H       
  48 H48           -2.4629     1.3727     2.8687 H       
  49 H49           -2.8965    -0.3197     3.2090 H       
  50 H50            6.4854    -0.4732     0.0905 H       
  51 H51            4.4372    -1.6990     0.6898 H       
  52 H52            1.8731     0.3072    -3.3406 H       
  53 H53           -2.1904     2.3768    -2.2546 H       
  54 H54            0.2042     2.5537     1.2720 H       
  55 H55            2.0263     1.3839     0.1015 H       
@<TRIPOS>BOND
   1    1    2 1
   2    1   34 1
   3    1   35 1
   4    1   36 1
   5    2    3 1
   6    2    5 1
   7    2   37 1
   8    3    4 1
   9    3   38 1
  10    3   39 1
  11    4   40 1
  12    4   41 1
  13    4   42 1
  14    5    6 2
  15    5    7 2
  16    5    8 am
  17    8    9 1
  18    8   17 1
  19    9   10 ar
  20    9   14 ar
  21   10   11 ar
  22   10   43 1
  23   11   12 ar
  24   11   44 1
  25   12   13 ar
  26   12   15 1
  27   13   14 ar
  28   13   45 1
  29   14   46 1
  30   15   16 1
  31   16   47 1
  32   16   48 1
  33   16   49 1
  34   17   18 ar
  35   17   22 ar
  36   18   19 ar
  37   18   23 1
  38   19   20 ar
  39   19   33 1
  40   20   21 ar
  41   20   32 1
  42   21   22 ar
  43   21   50 1
  44   22   51 1
  45   23   24 1
  46   23   52 1
  47   24   25 ar
  48   24   29 ar
  49   25   26 ar
  50   25   31 1
  51   26   27 ar
  52   26   53 1
  53   27   28 ar
  54   27   30 1
  55   28   29 ar
  56   28   54 1
  57   29   55 1

#	End of record

