#	Name: ASD04910487
#	Creating user name:	WinNT
#	Creation time:	15. 06. 2019 20:56

#	Modifying user name:	WinNT
#	Modification time:	15. 06. 2019 20:56

#	Program:	/corina/corina34_cracker 3.40 0067  02.08.2006

@<TRIPOS>MOLECULE
ASD04910487
  70   73    0    0    0
SMALL
NO_CHARGES


@<TRIPOS>ATOM
   1 C1             0.8208     1.4253     0.8267 C.2     
   2 C2             0.7300    -0.0747     0.7129 C.3     
   3 C3             2.1348    -0.6602     0.5556 C.3     
   4 O4             1.8985     1.9701     0.7862 O.2     
   5 O5            -0.2960     2.1565     0.9675 O.3     
   6 C6             3.1675    -2.8521     0.2981 C.2     
   7 C7             3.0784    -4.3236     0.1864 C.ar    
   8 C8             4.2373    -5.0864     0.0341 C.ar    
   9 C9             4.1473    -6.4592    -0.0690 C.ar    
  10 C10            2.9116    -7.0799    -0.0222 C.ar    
  11 C11            1.7590    -6.3296     0.1286 C.ar    
  12 C12            1.8355    -4.9565     0.2386 C.ar    
  13 O13            4.2516    -2.3040     0.2573 O.2     
  14 N14            2.0465    -2.1183     0.4450 N.am    
  15 C15            2.8208    -8.5798    -0.1365 C.3     
  16 N16            1.8078    -9.0802     0.7961 N.pl3   
  17 C17            2.8034    -9.8292     4.6785 C.ar    
  18 N18            1.5944   -10.1532     4.2502 N.ar    
  19 C19            1.2351    -9.9256     2.9981 C.ar    
  20 C20            2.1492    -9.3369     2.1281 C.ar    
  21 C21            3.4118    -9.0104     2.6165 C.ar    
  22 N22            3.6981    -9.2687     3.8814 N.ar    
  23 N23            3.1424   -10.0806     6.0095 N.pl3   
  24 N24            2.3121   -10.6603     6.9776 N.2     
  25 C25            2.9798   -10.7325     8.1001 C.2     
  26 C26            4.2577   -10.2021     7.8882 C.2     
  27 C27            4.3385    -9.8120     6.5955 C.2     
  28 C28            5.3524   -10.0900     8.9178 C.3     
  29 F29            4.8991   -10.6022    10.1381 F       
  30 F30            6.4689   -10.8177     8.4924 F       
  31 F31            5.7054    -8.7458     9.0786 F       
  32 C32            2.4300    -8.9596    -1.5661 C.3     
  33 C33            2.2109   -10.4688    -1.7645 C.3     
  34 C34            1.0136   -10.0981    -2.6554 C.3     
  35 C35            0.9314    -8.7830    -1.8626 C.3     
  36 C36            1.3819    -9.9041    -4.1277 C.3     
  37 C37           -0.2006   -11.0083    -2.4602 C.3     
  38 C38           -0.1331     3.5956     1.0711 C.3     
  39 C39           -1.5053     4.2545     1.2249 C.3     
  40 H40            0.2661    -0.4799     1.6122 H       
  41 H41            0.1275    -0.3373    -0.1567 H       
  42 H42            2.5987    -0.2550    -0.3436 H       
  43 H43            2.7373    -0.3976     1.4252 H       
  44 H44            5.2024    -4.6030    -0.0032 H       
  45 H45            5.0433    -7.0506    -0.1869 H       
  46 H46            0.7975    -6.8203     0.1644 H       
  47 H47            0.9354    -4.3724     0.3608 H       
  48 H48            1.1813    -2.5557     0.4775 H       
  49 H49            3.7873    -9.0218     0.1056 H       
  50 H50            0.9002    -9.2334     0.4898 H       
  51 H51            0.2466   -10.1929     2.6549 H       
  52 H52            4.1470    -8.5530     1.9711 H       
  53 H53            2.6082   -11.1327     9.0318 H       
  54 H54            5.1974    -9.3655     6.1166 H       
  55 H55            3.0808    -8.5105    -2.3163 H       
  56 H56            3.0207   -10.9603    -2.3037 H       
  57 H57            1.9298   -10.9930    -0.8511 H       
  58 H58            0.3005    -8.8463    -0.9760 H       
  59 H59            0.7082    -7.9135    -2.4810 H       
  60 H60            1.8061   -10.8280    -4.5208 H       
  61 H61            0.4879    -9.6447    -4.6948 H       
  62 H62            2.1141    -9.1016    -4.2164 H       
  63 H63           -0.5355   -10.9502    -1.4246 H       
  64 H64           -1.0057   -10.6868    -3.1210 H       
  65 H65            0.0743   -12.0363    -2.6961 H       
  66 H66            0.4820     3.8299     1.9400 H       
  67 H67            0.3519     3.9721     0.1705 H       
  68 H68           -1.3830     5.3348     1.3027 H       
  69 H69           -2.1203     4.0201     0.3560 H       
  70 H70           -1.9903     3.8780     2.1255 H       
@<TRIPOS>BOND
   1    1    2 1
   2    1    4 2
   3    1    5 1
   4    2    3 1
   5    2   40 1
   6    2   41 1
   7    3   14 1
   8    3   42 1
   9    3   43 1
  10    5   38 1
  11    6    7 1
  12    6   13 2
  13    6   14 am
  14    7    8 ar
  15    7   12 ar
  16    8    9 ar
  17    8   44 1
  18    9   10 ar
  19    9   45 1
  20   10   11 ar
  21   10   15 1
  22   11   12 ar
  23   11   46 1
  24   12   47 1
  25   14   48 1
  26   15   16 1
  27   15   32 1
  28   15   49 1
  29   16   20 1
  30   16   50 1
  31   17   18 ar
  32   17   22 ar
  33   17   23 1
  34   18   19 ar
  35   19   20 ar
  36   19   51 1
  37   20   21 ar
  38   21   22 ar
  39   21   52 1
  40   23   24 1
  41   23   27 1
  42   24   25 2
  43   25   26 1
  44   25   53 1
  45   26   27 2
  46   26   28 1
  47   27   54 1
  48   28   29 1
  49   28   30 1
  50   28   31 1
  51   32   33 1
  52   32   35 1
  53   32   55 1
  54   33   34 1
  55   33   56 1
  56   33   57 1
  57   34   35 1
  58   34   36 1
  59   34   37 1
  60   35   58 1
  61   35   59 1
  62   36   60 1
  63   36   61 1
  64   36   62 1
  65   37   63 1
  66   37   64 1
  67   37   65 1
  68   38   39 1
  69   38   66 1
  70   38   67 1
  71   39   68 1
  72   39   69 1
  73   39   70 1

#	End of record

