#	Name: ASD01120157
#	Creating user name:	WinNT
#	Creation time:	15. 06. 2019 18:59

#	Modifying user name:	WinNT
#	Modification time:	15. 06. 2019 18:59

#	Program:	/corina/corina34_cracker 3.40 0067  02.08.2006

@<TRIPOS>MOLECULE
ASD01120157
  50   52    0    0    0
SMALL
NO_CHARGES


@<TRIPOS>ATOM
   1 C1            -0.0593     1.4177     0.6871 C.ar    
   2 C2            -0.0460     0.0194     0.7772 C.ar    
   3 C3            -1.2130    -0.7039     0.6620 C.ar    
   4 C4            -2.4234    -0.0321     0.4531 C.ar    
   5 C5            -2.4290     1.3816     0.3635 C.ar    
   6 C6            -1.2299     2.0934     0.4892 C.ar    
   7 N7            -3.5866    -0.6920     0.3339 N.ar    
   8 C8            -4.7115    -0.0320     0.1371 C.ar    
   9 N9            -4.7608     1.2941     0.0471 N.ar    
  10 C10           -3.6672     2.0354     0.1516 C.ar    
  11 C11           -6.0796     3.5116     0.6163 C.ar    
  12 C12           -4.9752     4.0462    -0.0346 C.ar    
  13 C13           -5.1072     5.2138    -0.7755 C.ar    
  14 C14           -6.3360     5.8395    -0.8626 C.ar    
  15 C15           -7.4342     5.3037    -0.2126 C.ar    
  16 C16           -7.3053     4.1420     0.5257 C.ar    
  17 N17           -3.7334     3.4109     0.0561 N.pl3   
  18 Br18          -6.5174     7.4294    -1.8702 Br      
  19 O19            1.1299    -0.6299     0.9799 O.3     
  20 O20            1.1056     2.1103     0.8035 O.3     
  21 C21            1.0779    -2.0555     1.0628 C.3     
  22 C22            1.0270     3.5336     0.7028 C.3     
  23 N23           -5.8893    -0.7490     0.0190 N.pl3   
  24 C24           -5.8694    -2.2108     0.1130 C.3     
  25 C25           -7.1559    -0.0462    -0.2000 C.3     
  26 C26           -7.3996     0.1095    -1.7024 C.3     
  27 C27           -6.0597    -2.6307     1.5719 C.3     
  28 H28           -1.1941    -1.7815     0.7319 H       
  29 H29           -1.2294     3.1713     0.4219 H       
  30 H30           -5.9810     2.6015     1.1894 H       
  31 H31           -4.2503     5.6323    -1.2824 H       
  32 H32           -8.3938     5.7944    -0.2821 H       
  33 H33           -8.1642     3.7265     1.0317 H       
  34 H34           -2.9182     3.9366     0.0519 H       
  35 H35            0.4350    -2.3480     1.8930 H       
  36 H36            0.6770    -2.4591     0.1331 H       
  37 H37            2.0821    -2.4469     1.2257 H       
  38 H38            0.6197     3.8070    -0.2706 H       
  39 H39            0.3777     3.9182     1.4893 H       
  40 H40            2.0236     3.9612     0.8128 H       
  41 H41           -6.6758    -2.6248    -0.4924 H       
  42 H42           -4.9127    -2.5854    -0.2510 H       
  43 H43           -7.9706    -0.6191     0.2428 H       
  44 H44           -7.1099     0.9388     0.2646 H       
  45 H45           -8.3420     0.6324    -1.8654 H       
  46 H46           -6.5849     0.6824    -2.1452 H       
  47 H47           -7.4455    -0.8755    -2.1670 H       
  48 H48           -6.0450    -3.7184     1.6418 H       
  49 H49           -5.2534    -2.2168     2.1773 H       
  50 H50           -7.0165    -2.2562     1.9359 H       
@<TRIPOS>BOND
   1    1    2 ar
   2    1   20 1
   3    1    6 ar
   4    2    3 ar
   5    2   19 1
   6    3    4 ar
   7    3   28 1
   8    4    5 ar
   9    4    7 ar
  10    5    6 ar
  11    5   10 ar
  12    6   29 1
  13    7    8 ar
  14    8    9 ar
  15    8   23 1
  16    9   10 ar
  17   10   17 1
  18   11   12 ar
  19   11   16 ar
  20   11   30 1
  21   12   13 ar
  22   12   17 1
  23   13   14 ar
  24   13   31 1
  25   14   15 ar
  26   14   18 1
  27   15   16 ar
  28   15   32 1
  29   16   33 1
  30   17   34 1
  31   19   21 1
  32   20   22 1
  33   21   35 1
  34   21   36 1
  35   21   37 1
  36   22   38 1
  37   22   39 1
  38   22   40 1
  39   23   24 1
  40   23   25 1
  41   24   27 1
  42   24   41 1
  43   24   42 1
  44   25   26 1
  45   25   43 1
  46   25   44 1
  47   26   45 1
  48   26   46 1
  49   26   47 1
  50   27   48 1
  51   27   49 1
  52   27   50 1

#	End of record

