#	Name: ASD01916611
#	Creating user name:	WinNT
#	Creation time:	15. 06. 2019 20:07

#	Modifying user name:	WinNT
#	Modification time:	15. 06. 2019 20:07

#	Program:	/corina/corina34_cracker 3.40 0067  02.08.2006

@<TRIPOS>MOLECULE
ASD01916611
  45   48    0    0    0
SMALL
NO_CHARGES


@<TRIPOS>ATOM
   1 C1            -0.0172     1.4154     0.0098 C.2     
   2 C2             0.0021    -0.0041     0.0020 C.2     
   3 C3             1.2205    -0.6570    -0.0131 C.2     
   4 C4             2.4039     0.0938    -0.0204 C.2     
   5 C5             2.3581     1.4435    -0.0123 C.2     
   6 N6             1.1652     2.1070     0.0022 N.pl3   
   7 N7            -1.0073     2.2929     0.0293 N.2     
   8 C8            -0.4988     3.5281     0.0282 C.2     
   9 C9             0.8488     3.4389     0.0124 C.2     
  10 C10           -1.2637    -0.7736     0.0105 C.ar    
  11 C11           -1.5864    -1.5788     1.1026 C.ar    
  12 C12           -2.7671    -2.2928     1.1048 C.ar    
  13 C13           -3.6299    -2.2116     0.0264 C.ar    
  14 C14           -3.3154    -1.4146    -1.0598 C.ar    
  15 C15           -2.1403    -0.6914    -1.0712 C.ar    
  16 C16           -1.2953     4.8073     0.0469 C.3     
  17 C17           -2.2853     4.8087    -1.1196 C.3     
  18 C18           -3.0634     6.0581    -1.1013 C.1     
  19 C19           -3.6839     7.0546    -1.0868 C.1     
  20 C20           -4.4408     8.2701    -1.0690 C.ar    
  21 C21           -5.4118     8.4954    -2.0455 C.ar    
  22 C22           -6.1347     9.6746    -2.0146 C.ar    
  23 C23           -5.8643    10.5919    -1.0085 C.ar    
  24 C24           -4.8881    10.3045    -0.0724 C.ar    
  25 N25           -4.2171     9.1718    -0.1201 N.ar    
  26 C26           -4.5916    11.2983     1.0210 C.3     
  27 F27           -5.4053    11.0312     2.1272 F       
  28 H28            1.2601    -1.7363    -0.0189 H       
  29 H29            3.3589    -0.4104    -0.0322 H       
  30 H30            3.2796     2.0068    -0.0173 H       
  31 H31            1.5461     4.2636     0.0102 H       
  32 H32           -0.9133    -1.6435     1.9447 H       
  33 H33           -3.0180    -2.9166     1.9500 H       
  34 H34           -4.5525    -2.7729     0.0325 H       
  35 H35           -3.9929    -1.3552    -1.8987 H       
  36 H36           -1.8980    -0.0661    -1.9178 H       
  37 H37           -1.8417     4.8813     0.9872 H       
  38 H38           -0.6198     5.6574    -0.0487 H       
  39 H39           -1.7389     4.7346    -2.0599 H       
  40 H40           -2.9608     3.9586    -1.0240 H       
  41 H41           -5.5962     7.7599    -2.8145 H       
  42 H42           -6.8924     9.8771    -2.7571 H       
  43 H43           -6.4111    11.5218    -0.9575 H       
  44 H44           -3.5443    11.2166     1.3121 H       
  45 H45           -4.7903    12.3070     0.6589 H       
@<TRIPOS>BOND
   1    1    2 1
   2    1    6 1
   3    1    7 2
   4    2    3 2
   5    2   10 1
   6    3    4 1
   7    3   28 1
   8    4    5 2
   9    4   29 1
  10    5    6 1
  11    5   30 1
  12    6    9 1
  13    7    8 1
  14    8    9 2
  15    8   16 1
  16    9   31 1
  17   10   11 ar
  18   10   15 ar
  19   11   12 ar
  20   11   32 1
  21   12   13 ar
  22   12   33 1
  23   13   14 ar
  24   13   34 1
  25   14   15 ar
  26   14   35 1
  27   15   36 1
  28   16   17 1
  29   16   37 1
  30   16   38 1
  31   17   18 1
  32   17   39 1
  33   17   40 1
  34   18   19 3
  35   19   20 1
  36   20   21 ar
  37   20   25 ar
  38   21   22 ar
  39   21   41 1
  40   22   23 ar
  41   22   42 1
  42   23   24 ar
  43   23   43 1
  44   24   25 ar
  45   24   26 1
  46   26   27 1
  47   26   44 1
  48   26   45 1

#	End of record

