#	Name: ASD01208967
#	Creating user name:	WinNT
#	Creation time:	15. 06. 2019 19:10

#	Modifying user name:	WinNT
#	Modification time:	15. 06. 2019 19:10

#	Program:	/corina/corina34_cracker 3.40 0067  02.08.2006

@<TRIPOS>MOLECULE
ASD01208967
  48   51    0    0    0
SMALL
NO_CHARGES


@<TRIPOS>ATOM
   1 C1            -0.0188     1.5345     0.0105 C.3     
   2 C2             0.0021    -0.0041     0.0020 C.3     
   3 C3            -0.7058    -0.5310    -1.2479 C.3     
   4 C4            -0.7877    -2.0574    -1.1823 C.3     
   5 C5            -1.3734    -2.5846    -2.4669 C.2     
   6 N6            -0.7546    -2.3417    -3.6393 N.am    
   7 C7            -1.2952    -2.8284    -4.8250 C.2     
   8 N8            -1.6401    -2.4529    -0.0584 N.pl3   
   9 C9            -2.9853    -2.5571    -0.0805 C.2     
  10 C10           -3.3890    -2.9473     1.1507 C.2     
  11 C11           -2.2515    -3.0864     1.9526 C.2     
  12 N12           -1.2021    -2.7956     1.2273 N.2     
  13 O13           -2.4016    -3.2275    -2.4456 O.2     
  14 S14           -0.6092    -2.5972    -6.4309 S.3     
  15 C15           -1.9397    -3.5190    -7.1281 C.2     
  16 C16           -2.7469    -3.9026    -6.1366 C.2     
  17 N17           -2.3825    -3.5299    -4.9239 N.2     
  18 F18           -2.1130    -3.7903    -8.4402 F       
  19 C19            1.4862    -0.4246    -0.0144 C.3     
  20 C20            2.2325     0.7924     0.5864 C.3     
  21 C21            1.4534     1.9953    -0.0011 C.3     
  22 C22           -5.3429    -4.9848     1.2962 C.3     
  23 C23           -6.7566    -5.5270     1.5163 C.3     
  24 C24           -6.2278    -5.3240     0.0950 C.3     
  25 S25           -5.0536    -3.2303     1.6545 S.o2    
  26 O26           -5.0384    -3.0037     3.0573 O.2     
  27 O27           -5.8261    -2.4104     0.7883 O.2     
  28 H28           -0.5332     1.9058    -0.8758 H       
  29 H29           -0.5162     1.8962     0.9104 H       
  30 H30           -0.4859    -0.3890     0.8974 H       
  31 H31           -1.7121    -0.1150    -1.2981 H       
  32 H32           -0.1456    -0.2349    -2.1347 H       
  33 H33            0.2119    -2.4692    -1.0428 H       
  34 H34            0.0678    -1.8276    -3.6563 H       
  35 H35           -3.6251    -2.3634    -0.9287 H       
  36 H36           -2.2410    -3.3863     2.9901 H       
  37 H37           -3.6391    -4.4845    -6.3149 H       
  38 H38            1.6390    -1.3091     0.6040 H       
  39 H39            1.8189    -0.6099    -1.0357 H       
  40 H40            2.1693     0.7856     1.6746 H       
  41 H41            3.2720     0.8083     0.2589 H       
  42 H42            1.7808     2.2008    -1.0203 H       
  43 H43            1.5822     2.8767     0.6270 H       
  44 H44           -4.5087    -5.6524     1.5117 H       
  45 H45           -6.8524    -6.5514     1.8761 H       
  46 H46           -7.5128    -4.8294     1.8763 H       
  47 H47           -6.6360    -4.4928    -0.4800 H       
  48 H48           -5.9756    -6.2148    -0.4802 H       
@<TRIPOS>BOND
   1    1    2 1
   2    1   21 1
   3    1   28 1
   4    1   29 1
   5    2    3 1
   6    2   19 1
   7    2   30 1
   8    3    4 1
   9    3   31 1
  10    3   32 1
  11    4    5 1
  12    4    8 1
  13    4   33 1
  14    5    6 am
  15    5   13 2
  16    6    7 1
  17    6   34 1
  18    7   14 1
  19    7   17 2
  20    8    9 1
  21    8   12 1
  22    9   10 2
  23    9   35 1
  24   10   11 1
  25   10   25 1
  26   11   12 2
  27   11   36 1
  28   14   15 1
  29   15   16 2
  30   15   18 1
  31   16   17 1
  32   16   37 1
  33   19   20 1
  34   19   38 1
  35   19   39 1
  36   20   21 1
  37   20   40 1
  38   20   41 1
  39   21   42 1
  40   21   43 1
  41   22   23 1
  42   22   25 1
  43   22   24 1
  44   22   44 1
  45   23   24 1
  46   23   45 1
  47   23   46 1
  48   24   47 1
  49   24   48 1
  50   25   26 2
  51   25   27 2

#	End of record

