#	Name: ASD03090372
#	Creating user name:	WinNT
#	Creation time:	15. 06. 2019 20:28

#	Modifying user name:	WinNT
#	Modification time:	15. 06. 2019 20:28

#	Program:	/corina/corina34_cracker 3.40 0067  02.08.2006

@<TRIPOS>MOLECULE
ASD03090372
  38   40    0    0    0
SMALL
NO_CHARGES


@<TRIPOS>ATOM
   1 C1            -0.0179     1.4719     0.0101 C.2     
   2 C2             0.0021    -0.0041     0.0020 C.ar    
   3 C3             1.2203    -0.6995    -0.0133 C.ar    
   4 C4             1.1875    -2.0786    -0.0205 C.ar    
   5 C5            -0.0424    -2.7299    -0.0123 C.ar    
   6 N6            -1.1755    -2.0450     0.0022 N.ar    
   7 C7            -1.1903    -0.7285     0.0153 C.ar    
   8 O8             1.0266     2.0941     0.0035 O.2     
   9 N9            -1.1942     2.1299     0.0193 N.am    
  10 O10           -0.0809    -4.0843    -0.0197 O.3     
  11 C11           -1.3719    -4.6967    -0.0107 C.3     
  12 C12           -1.2146    -6.2186    -0.0209 C.3     
  13 F13           -0.4996    -6.6211     1.1121 F       
  14 F14           -2.4786    -6.8181    -0.0121 F       
  15 F15           -0.5218    -6.6080    -1.1723 F       
  16 C16           -1.2140     3.5947     0.0273 C.3     
  17 C17           -5.2338     4.9566    -0.0600 C.ar    
  18 C18           -4.6183     4.7427     1.1885 C.ar    
  19 C19           -3.2964     4.2947     1.2347 C.ar    
  20 C20           -2.6415     4.0777     0.0367 C.ar    
  21 C21           -3.3094     4.3087    -1.1558 C.ar    
  22 N22           -4.5556     4.7314    -1.1772 N.ar    
  23 N23           -6.5118     5.3942     0.1927 N.pl3   
  24 C24           -5.6203     5.0790     2.2013 C.2     
  25 C25           -6.7251     5.4641     1.5433 C.2     
  26 H26            2.1607    -0.1683    -0.0198 H       
  27 H27            2.1060    -2.6466    -0.0327 H       
  28 H28           -2.1344    -0.2043     0.0317 H       
  29 H29           -2.0275     1.6335     0.0205 H       
  30 H30           -1.9117    -4.3933     0.8863 H       
  31 H31           -1.9290    -4.3831    -0.8935 H       
  32 H32           -0.7010     3.9602     0.9169 H       
  33 H33           -0.7094     3.9698    -0.8630 H       
  34 H34           -2.8003     4.1229     2.1785 H       
  35 H35           -2.7946     4.1381    -2.0898 H       
  36 H36           -7.1665     5.6208    -0.4863 H       
  37 H37           -5.4934     5.0313     3.2728 H       
  38 H38           -7.6466     5.7793     2.0101 H       
@<TRIPOS>BOND
   1    1    2 1
   2    1    8 2
   3    1    9 am
   4    2    3 ar
   5    2    7 ar
   6    3    4 ar
   7    3   26 1
   8    4    5 ar
   9    4   27 1
  10    5    6 ar
  11    5   10 1
  12    6    7 ar
  13    7   28 1
  14    9   16 1
  15    9   29 1
  16   10   11 1
  17   11   12 1
  18   11   30 1
  19   11   31 1
  20   12   13 1
  21   12   14 1
  22   12   15 1
  23   16   20 1
  24   16   32 1
  25   16   33 1
  26   17   18 ar
  27   17   22 ar
  28   17   23 1
  29   18   19 ar
  30   18   24 1
  31   19   20 ar
  32   19   34 1
  33   20   21 ar
  34   21   22 ar
  35   21   35 1
  36   23   25 1
  37   23   36 1
  38   24   25 2
  39   24   37 1
  40   25   38 1

#	End of record

