#	Name: ASD03170011
#	Creating user name:	WinNT
#	Creation time:	15. 06. 2019 20:33

#	Modifying user name:	WinNT
#	Modification time:	15. 06. 2019 20:33

#	Program:	/corina/corina34_cracker 3.40 0067  02.08.2006

@<TRIPOS>MOLECULE
ASD03170011
  64   67    0    0    0
SMALL
NO_CHARGES


@<TRIPOS>ATOM
   1 C1             0.3584     1.1827     0.5646 C.3     
   2 O2             0.3663    -0.2646     0.4479 O.3     
   3 C3             0.7015    -0.7779    -0.7462 C.2     
   4 O4             0.9790    -0.0422    -1.6636 O.2     
   5 C5             0.7316    -2.2728    -0.9428 C.3     
   6 C6             1.5991    -2.8991     0.1467 C.3     
   7 C7             1.7273    -4.4087    -0.0444 C.3     
   8 O8             2.6175    -4.9538     0.9654 O.3     
   9 C9             2.0587    -5.3541     2.1183 C.2     
  10 O10            0.8654    -5.2525     2.2786 O.2     
  11 C11            2.9196    -5.9303     3.2129 C.3     
  12 C12            2.2984    -4.7092    -1.4368 C.3     
  13 C13            1.3504    -4.1090    -2.4727 C.3     
  14 C14            1.3011    -2.5939    -2.3376 C.3     
  15 C15            2.6797    -1.9417    -2.4389 C.3     
  16 C16            0.3843    -1.9794    -3.3963 C.3     
  17 C17            0.7796    -2.4570    -4.7971 C.3     
  18 C18            0.6441    -3.9708    -4.8576 C.3     
  19 C19            1.6107    -4.6322    -3.8685 C.3     
  20 C20            3.0572    -4.4265    -4.3076 C.3     
  21 C21            1.3018    -6.1388    -3.9362 C.3     
  22 C22            1.6163    -6.6793    -5.3271 C.3     
  23 O23            1.3311    -5.7674    -6.3975 O.3     
  24 C24            0.9367    -4.5044    -6.2357 C.2     
  25 O25            0.8075    -3.7722    -7.2028 O.2     
  26 C26            0.8315    -7.9483    -5.5385 C.2     
  27 C27           -0.4254    -8.0655    -6.1751 C.2     
  28 C28           -0.7571    -9.3687    -6.1459 C.2     
  29 O29            0.2268   -10.0433    -5.5288 O.3     
  30 C30            1.1951    -9.1877    -5.1628 C.2     
  31 C31            2.4686    -9.5528    -4.4446 C.3     
  32 O32            2.2574    -9.4796    -3.0332 O.3     
  33 H33            1.3540     1.5701     0.3483 H       
  34 H34           -0.3561     1.6004    -0.1447 H       
  35 H35            0.0713     1.4639     1.5778 H       
  36 H36           -0.2835    -2.6675    -0.8783 H       
  37 H37            2.5862    -2.4408     0.1631 H       
  38 H38            1.1252    -2.7100     1.1209 H       
  39 H39            0.7460    -4.8753     0.0467 H       
  40 H40            3.2598    -5.1281     3.8678 H       
  41 H41            2.3394    -6.6497     3.7907 H       
  42 H42            3.7821    -6.4297     2.7717 H       
  43 H43            3.2980    -4.2975    -1.5177 H       
  44 H44            2.3446    -5.7933    -1.5669 H       
  45 H45            0.3301    -4.4756    -2.1905 H       
  46 H46            3.2979    -2.2670    -1.6022 H       
  47 H47            3.1527    -2.2357    -3.3759 H       
  48 H48            2.5717    -0.8574    -2.4109 H       
  49 H49           -0.6472    -2.2697    -3.1938 H       
  50 H50            0.4648    -0.8912    -3.3680 H       
  51 H51            0.0971    -2.0048    -5.5275 H       
  52 H52            1.7916    -2.1440    -5.0363 H       
  53 H53           -0.3821    -4.2458    -4.5833 H       
  54 H54            3.2295    -3.3688    -4.5069 H       
  55 H55            3.7281    -4.7611    -3.5164 H       
  56 H56            3.2475    -5.0026    -5.2131 H       
  57 H57            1.9119    -6.6563    -3.1941 H       
  58 H58            0.2470    -6.2923    -3.7048 H       
  59 H59            2.6819    -6.9553    -5.3640 H       
  60 H60           -1.0078    -7.2625    -6.6023 H       
  61 H61           -1.6613    -9.7996    -6.5499 H       
  62 H62            2.7608   -10.5672    -4.7161 H       
  63 H63            3.2588    -8.8584    -4.7302 H       
  64 H64            3.0373    -9.7026    -2.5067 H       
@<TRIPOS>BOND
   1    1    2 1
   2    1   33 1
   3    1   34 1
   4    1   35 1
   5    2    3 1
   6    3    4 2
   7    3    5 1
   8    5    6 1
   9    5   14 1
  10    5   36 1
  11    6    7 1
  12    6   37 1
  13    6   38 1
  14    7    8 1
  15    7   12 1
  16    7   39 1
  17    8    9 1
  18    9   10 2
  19    9   11 1
  20   11   40 1
  21   11   41 1
  22   11   42 1
  23   12   13 1
  24   12   43 1
  25   12   44 1
  26   13   14 1
  27   13   19 1
  28   13   45 1
  29   14   15 1
  30   14   16 1
  31   15   46 1
  32   15   47 1
  33   15   48 1
  34   16   17 1
  35   16   49 1
  36   16   50 1
  37   17   18 1
  38   17   51 1
  39   17   52 1
  40   18   19 1
  41   18   24 1
  42   18   53 1
  43   19   20 1
  44   19   21 1
  45   20   54 1
  46   20   55 1
  47   20   56 1
  48   21   22 1
  49   21   57 1
  50   21   58 1
  51   22   23 1
  52   22   26 1
  53   22   59 1
  54   23   24 1
  55   24   25 2
  56   26   27 1
  57   26   30 2
  58   27   28 2
  59   27   60 1
  60   28   29 1
  61   28   61 1
  62   29   30 1
  63   30   31 1
  64   31   32 1
  65   31   62 1
  66   31   63 1
  67   32   64 1

#	End of record

