#	Name: ASD01900055
#	Creating user name:	WinNT
#	Creation time:	15. 06. 2019 19:51

#	Modifying user name:	WinNT
#	Modification time:	15. 06. 2019 19:51

#	Program:	/corina/corina34_cracker 3.40 0067  02.08.2006

@<TRIPOS>MOLECULE
ASD01900055
  32   33    0    0    0
SMALL
NO_CHARGES


@<TRIPOS>ATOM
   1 C1            -0.0166     1.7761     0.6723 C.ar    
   2 C2            -0.1627     0.4037     0.5944 C.ar    
   3 C3             1.2243     2.3515     0.4731 C.ar    
   4 C4             2.3193     1.5545     0.1959 C.ar    
   5 C5             2.1733     0.1821     0.1184 C.ar    
   6 C6             0.9323    -0.3933     0.3177 C.ar    
   7 P7            -1.7912    -0.3515     0.8559 P.3     
   8 O8            -2.7111     0.0736    -0.2227 O.2     
   9 O9            -1.6482    -1.9550     0.8385 O.3     
  10 O10           -2.3788     0.1195     2.2790 O.3     
  11 C11            3.6720     2.1819    -0.0223 C.3     
  12 N12            3.6364     3.5853     0.4105 N.3     
  13 C13            4.7230     1.4238     0.7911 C.3     
  14 C14            6.1456     1.9866     0.8062 C.3     
  15 C15            5.2643     2.1011     2.0517 C.3     
  16 C16            4.0260     2.1164    -1.4857 C.2     
  17 O17            3.5363     1.2639    -2.1881 O.2     
  18 O18            4.8852     3.0051    -2.0088 O.3     
  19 H19           -0.8730     2.3991     0.8845 H       
  20 H20            1.3384     3.4237     0.5336 H       
  21 H21            3.0288    -0.4406    -0.0982 H       
  22 H22            0.8182    -1.4656     0.2568 H       
  23 H23           -1.0587    -2.3048     1.5205 H       
  24 H24           -3.2496    -0.2469     2.4856 H       
  25 H25            4.5484     4.0103     0.3346 H       
  26 H26            2.9494     4.1076    -0.1123 H       
  27 H27            4.6103     0.3398     0.8106 H       
  28 H28            6.9689     1.2729     0.8361 H       
  29 H29            6.3328     2.8970     0.2367 H       
  30 H30            4.8717     3.0868     2.3015 H       
  31 H31            5.5078     1.4627     2.9009 H       
  32 H32            5.0815     2.9231    -2.9521 H       
@<TRIPOS>BOND
   1    1    2 ar
   2    1    3 ar
   3    1   19 1
   4    2    7 1
   5    2    6 ar
   6    3    4 ar
   7    3   20 1
   8    4    5 ar
   9    4   11 1
  10    5    6 ar
  11    5   21 1
  12    6   22 1
  13    7    8 2
  14    7    9 1
  15    7   10 1
  16    9   23 1
  17   10   24 1
  18   11   12 1
  19   11   13 1
  20   11   16 1
  21   12   25 1
  22   12   26 1
  23   13   14 1
  24   13   15 1
  25   13   27 1
  26   14   15 1
  27   14   28 1
  28   14   29 1
  29   15   30 1
  30   15   31 1
  31   16   17 2
  32   16   18 1
  33   18   32 1

#	End of record

