#	Name: ASD03092888
#	Creating user name:	WinNT
#	Creation time:	15. 06. 2019 20:33

#	Modifying user name:	WinNT
#	Modification time:	15. 06. 2019 20:33

#	Program:	/corina/corina34_cracker 3.40 0067  02.08.2006

@<TRIPOS>MOLECULE
ASD03092888
  46   49    0    0    0
SMALL
NO_CHARGES


@<TRIPOS>ATOM
   1 C1            -0.0173     1.4248     0.0099 C.3     
   2 O2             0.0021    -0.0041     0.0020 O.3     
   3 C3             0.6060    -0.6073    -1.0560 C.ar    
   4 C4             1.1730     0.1699    -2.0626 C.ar    
   5 C5             1.7836    -0.4202    -3.1326 C.ar    
   6 C6             1.8409    -1.8125    -3.2189 C.ar    
   7 C7             2.4012    -2.7486    -4.1975 C.2     
   8 C8             2.1511    -3.9866    -3.7444 C.2     
   9 N9             1.4758    -3.9206    -2.5545 N.pl3   
  10 H10            1.1856    -4.6867    -2.0352 H       
  11 C11            1.2706    -2.6045    -2.2055 C.ar    
  12 C12            0.6571    -1.9873    -1.1209 C.ar    
  13 C13            3.1213    -2.3890    -5.4716 C.3     
  14 C14            4.5385    -2.9679    -5.4392 C.3     
  15 C15            5.2437    -2.6518    -6.7601 C.3     
  16 N16            4.4834    -3.2333    -7.8738 N.3     
  17 C17            3.1348    -2.6577    -7.9538 C.3     
  18 C18            2.3666    -2.9740    -6.6685 C.3     
  19 C19            5.1612    -3.0784    -9.0721 C.ar    
  20 C20            4.6128    -3.5558   -10.2641 C.ar    
  21 C21            5.3275    -3.3770   -11.4323 C.ar    
  22 N22            6.5013    -2.7631   -11.3848 N.ar    
  23 C23            6.9920    -2.3238   -10.2433 C.ar    
  24 N24            6.3422    -2.4678    -9.1062 N.ar    
  25 C25            4.7796    -3.8743   -12.7452 C.3     
  26 F26            4.0107    -2.8685   -13.3406 F       
  27 F27            5.8387    -4.2154   -13.5932 F       
  28 F28            3.9807    -5.0006   -12.5205 F       
  29 H29            1.0053     1.8021     0.0021 H       
  30 H30           -0.5445     1.7859    -0.8732 H       
  31 H31           -0.5275     1.7763     0.9067 H       
  32 H32            1.1295     1.2470    -1.9971 H       
  33 H33            2.2208     0.1888    -3.9100 H       
  34 H34            2.4392    -4.8997    -4.2440 H       
  35 H35            0.2190    -2.5836    -0.3342 H       
  36 H36            3.1720    -1.3044    -5.5676 H       
  37 H37            5.0946    -2.5229    -4.6142 H       
  38 H38            4.4873    -4.0482    -5.3035 H       
  39 H39            5.3068    -1.5712    -6.8886 H       
  40 H40            6.2481    -3.0750    -6.7460 H       
  41 H41            3.2078    -1.5771    -8.0767 H       
  42 H42            2.6075    -3.0852    -8.8066 H       
  43 H43            2.2812    -4.0544    -6.5522 H       
  44 H44            1.3711    -2.5334    -6.7218 H       
  45 H45            3.6539    -4.0526   -10.2723 H       
  46 H46            7.9514    -1.8279   -10.2405 H       
@<TRIPOS>BOND
   1    1    2 1
   2    1   29 1
   3    1   30 1
   4    1   31 1
   5    2    3 1
   6    3   12 ar
   7    3    4 ar
   8    4    5 ar
   9    4   32 1
  10    5    6 ar
  11    5   33 1
  12    6   11 ar
  13    6    7 1
  14    7    8 2
  15    7   13 1
  16    8    9 1
  17    8   34 1
  18    9   10 1
  19    9   11 1
  20   11   12 ar
  21   12   35 1
  22   13   18 1
  23   13   14 1
  24   13   36 1
  25   14   15 1
  26   14   37 1
  27   14   38 1
  28   15   16 1
  29   15   39 1
  30   15   40 1
  31   16   17 1
  32   16   19 1
  33   17   18 1
  34   17   41 1
  35   17   42 1
  36   18   43 1
  37   18   44 1
  38   19   24 ar
  39   19   20 ar
  40   20   21 ar
  41   20   45 1
  42   21   22 ar
  43   21   25 1
  44   22   23 ar
  45   23   24 ar
  46   23   46 1
  47   25   26 1
  48   25   27 1
  49   25   28 1

#	End of record

