#	Name: ASD01890505
#	Creating user name:	WinNT
#	Creation time:	15. 06. 2019 19:51

#	Modifying user name:	WinNT
#	Modification time:	15. 06. 2019 19:51

#	Program:	/corina/corina34_cracker 3.40 0067  02.08.2006

@<TRIPOS>MOLECULE
ASD01890505
  34   37    0    0    0
SMALL
NO_CHARGES


@<TRIPOS>ATOM
   1 C1            -0.0155     1.2927     0.0091 C.2     
   2 N2             0.0021    -0.0041     0.0020 N.2     
   3 C3             1.2787    -0.4401    -0.0051 C.ar    
   4 C4             2.1153     0.7039    -0.0061 C.ar    
   5 N5             1.2753     1.7825    -0.0005 N.am    
   6 C6             1.8251    -1.7276    -0.0103 C.ar    
   7 C7             3.2051    -1.8243    -0.0162 C.ar    
   8 C8             4.0190    -0.7040    -0.0171 C.ar    
   9 C9             3.4987     0.5817    -0.0115 C.ar    
  10 C10           -1.2245     2.2000     0.0325 C.3     
  11 C11           -0.8006     3.5290     0.6723 C.3     
  12 C12            0.4189     4.0902    -0.0606 C.3     
  13 C13            1.5581     3.1007    -0.0088 C.2     
  14 O14            2.7036     3.4837     0.0244 O.2     
  15 C15           -1.9373     4.5141     0.5810 C.ar    
  16 C16           -2.4815     5.0503     1.7331 C.ar    
  17 C17           -3.5242     5.9540     1.6493 C.ar    
  18 C18           -4.0225     6.3218     0.4134 C.ar    
  19 C19           -3.4778     5.7863    -0.7387 C.ar    
  20 C20           -2.4321     4.8859    -0.6551 C.ar    
  21 Cl21           5.7422    -0.9150    -0.0240 Cl      
  22 H22            1.1979    -2.6068    -0.0094 H       
  23 H23            3.6614    -2.8032    -0.0199 H       
  24 H24            4.1413     1.4498    -0.0123 H       
  25 H25           -1.5744     2.3750    -0.9849 H       
  26 H26           -2.0181     1.7424     0.6231 H       
  27 H27           -0.5492     3.3630     1.7198 H       
  28 H28            0.1571     4.2856    -1.1005 H       
  29 H29            0.7279     5.0220     0.4132 H       
  30 H30           -2.0922     4.7630     2.6986 H       
  31 H31           -3.9498     6.3724     2.5494 H       
  32 H32           -4.8376     7.0272     0.3480 H       
  33 H33           -3.8673     6.0734    -1.7042 H       
  34 H34           -2.0041     4.4703    -1.5553 H       
@<TRIPOS>BOND
   1    1    2 2
   2    1    5 1
   3    1   10 1
   4    2    3 1
   5    3    4 ar
   6    3    6 ar
   7    4    5 1
   8    4    9 ar
   9    5   13 am
  10    6    7 ar
  11    6   22 1
  12    7    8 ar
  13    7   23 1
  14    8    9 ar
  15    8   21 1
  16    9   24 1
  17   10   11 1
  18   10   25 1
  19   10   26 1
  20   11   12 1
  21   11   15 1
  22   11   27 1
  23   12   13 1
  24   12   28 1
  25   12   29 1
  26   13   14 2
  27   15   16 ar
  28   15   20 ar
  29   16   17 ar
  30   16   30 1
  31   17   18 ar
  32   17   31 1
  33   18   19 ar
  34   18   32 1
  35   19   20 ar
  36   19   33 1
  37   20   34 1

#	End of record

