#	Name: ASD01151102
#	Creating user name:	WinNT
#	Creation time:	15. 06. 2019 19:05

#	Modifying user name:	WinNT
#	Modification time:	15. 06. 2019 19:05

#	Program:	/corina/corina34_cracker 3.40 0067  02.08.2006

@<TRIPOS>MOLECULE
ASD01151102
  54   57    0    0    0
SMALL
NO_CHARGES


@<TRIPOS>ATOM
   1 C1             0.4783     0.7452    -3.3319 C.3     
   2 C2             0.3099    -0.2314    -2.1662 C.3     
   3 C3             1.0866    -1.5162    -2.4610 C.3     
   4 C4             0.9181    -2.4928    -1.2953 C.3     
   5 C5            -0.5256    -2.9134    -1.1969 C.2     
   6 C6            -1.3834    -3.1094    -2.2705 C.2     
   7 C7            -2.6168    -3.4890    -1.7594 C.2     
   8 N8            -3.7839    -3.7975    -2.3427 N.2     
   9 C9            -4.8324    -4.1337    -1.6237 C.2     
  10 C10           -6.1311    -4.4758    -2.3075 C.3     
  11 C11           -4.7495    -4.1759    -0.2319 C.2     
  12 C12           -3.5656    -3.8640     0.3798 C.2     
  13 N13           -3.4569    -3.8984     1.7534 N.pl3   
  14 C14           -3.6750    -5.1506     2.4905 C.3     
  15 C15           -4.7288    -4.9070     3.5754 C.3     
  16 C16           -4.2912    -3.7304     4.4508 C.3     
  17 C17           -4.1802    -2.4678     3.5932 C.3     
  18 F18           -5.4153    -2.2011     2.9926 F       
  19 F19           -3.8100    -1.3864     4.3998 F       
  20 C20           -3.1147    -2.6850     2.5079 C.3     
  21 N21           -2.4903    -3.5174    -0.3946 N.pl3   
  22 N22           -1.1744    -3.1592    -0.0820 N.2     
  23 C23            1.7802    -3.7067    -1.5283 C.ar    
  24 C24            1.6347    -4.4452    -2.6879 C.ar    
  25 C25            2.4251    -5.5586    -2.9022 C.ar    
  26 C26            3.3620    -5.9340    -1.9560 C.ar    
  27 Cl27           4.3555    -7.3320    -2.2247 Cl      
  28 C28            3.5072    -5.1945    -0.7957 C.ar    
  29 C29            2.7202    -4.0780    -0.5851 C.ar    
  30 H30            1.5350     0.9805    -3.4590 H       
  31 H31            0.0950     0.2903    -4.2453 H       
  32 H32           -0.0750     1.6605    -3.1220 H       
  33 H33            0.6932     0.2235    -1.2529 H       
  34 H34           -0.7468    -0.4667    -2.0391 H       
  35 H35            0.7032    -1.9711    -3.3743 H       
  36 H36            2.1433    -1.2809    -2.5881 H       
  37 H37            1.2189    -2.0063    -0.3674 H       
  38 H38           -1.1359    -2.9881    -3.3147 H       
  39 H39           -6.0071    -4.3892    -3.3870 H       
  40 H40           -6.4164    -5.4972    -2.0554 H       
  41 H41           -6.9089    -3.7886    -1.9748 H       
  42 H42           -5.6115    -4.4519     0.3574 H       
  43 H43           -4.0277    -5.9213     1.8051 H       
  44 H44           -2.7411    -5.4697     2.9532 H       
  45 H45           -5.6859    -4.6762     3.1077 H       
  46 H46           -4.8303    -5.8006     4.1912 H       
  47 H47           -5.0273    -3.5706     5.2388 H       
  48 H48           -3.3224    -3.9516     4.8986 H       
  49 H49           -2.1361    -2.8071     2.9721 H       
  50 H50           -3.0976    -1.8284     1.8341 H       
  51 H51            0.9030    -4.1522    -3.4263 H       
  52 H52            2.3110    -6.1356    -3.8079 H       
  53 H53            4.2382    -5.4872    -0.0566 H       
  54 H54            2.8367    -3.4979     0.3184 H       
@<TRIPOS>BOND
   1    1    2 1
   2    1   30 1
   3    1   31 1
   4    1   32 1
   5    2    3 1
   6    2   33 1
   7    2   34 1
   8    3    4 1
   9    3   35 1
  10    3   36 1
  11    4    5 1
  12    4   23 1
  13    4   37 1
  14    5   22 2
  15    5    6 1
  16    6    7 2
  17    6   38 1
  18    7   21 1
  19    7    8 1
  20    8    9 2
  21    9   10 1
  22    9   11 1
  23   10   39 1
  24   10   40 1
  25   10   41 1
  26   11   12 2
  27   11   42 1
  28   12   13 1
  29   12   21 1
  30   13   20 1
  31   13   14 1
  32   14   15 1
  33   14   43 1
  34   14   44 1
  35   15   16 1
  36   15   45 1
  37   15   46 1
  38   16   17 1
  39   16   47 1
  40   16   48 1
  41   17   18 1
  42   17   19 1
  43   17   20 1
  44   20   49 1
  45   20   50 1
  46   21   22 1
  47   23   29 ar
  48   23   24 ar
  49   24   25 ar
  50   24   51 1
  51   25   26 ar
  52   25   52 1
  53   26   27 1
  54   26   28 ar
  55   28   29 ar
  56   28   53 1
  57   29   54 1

#	End of record

