#	Name: ASD01209135
#	Creating user name:	WinNT
#	Creation time:	15. 06. 2019 19:11

#	Modifying user name:	WinNT
#	Modification time:	15. 06. 2019 19:11

#	Program:	/corina/corina34_cracker 3.40 0067  02.08.2006

@<TRIPOS>MOLECULE
ASD01209135
  25   26    0    0    0
SMALL
NO_CHARGES


@<TRIPOS>ATOM
   1 N1            -0.0155     1.2927     0.0091 N.2     
   2 C2             0.0021    -0.0041     0.0020 C.2     
   3 S3             1.6153    -0.5697    -0.0164 S.3     
   4 C4             2.2086     1.0890    -0.0132 C.2     
   5 C5             1.1548     1.9057     0.0013 C.2     
   6 N6            -1.1231    -0.8135     0.0088 N.pl3   
   7 C7             1.2879     3.4068     0.0081 C.3     
   8 P8             1.3252     4.0213    -1.7078 P.3     
   9 O9             0.1331     3.5468    -2.4456 O.2     
  10 O10            1.3833     5.6452    -1.7210 O.3     
  11 C11            1.8941     6.3157    -2.8881 C.3     
  12 C12            3.2673     5.7384    -3.2336 C.3     
  13 C13            3.1563     4.2574    -3.5978 C.3     
  14 O14            2.6809     3.5234    -2.4527 O.3     
  15 H15            3.2453     1.3917    -0.0208 H       
  16 H16           -2.0073    -0.4148     0.0197 H       
  17 H17           -1.0264    -1.7786     0.0027 H       
  18 H18            0.4384     3.8445     0.5324 H       
  19 H19            2.2114     3.6874     0.5146 H       
  20 H20            1.2127     6.1616    -3.7247 H       
  21 H21            1.9878     7.3824    -2.6841 H       
  22 H22            3.6842     6.2856    -4.0790 H       
  23 H23            3.9291     5.8480    -2.3745 H       
  24 H24            2.4546     4.1364    -4.4230 H       
  25 H25            4.1357     3.8799    -3.8919 H       
@<TRIPOS>BOND
   1    1    2 2
   2    1    5 1
   3    2    3 1
   4    2    6 1
   5    3    4 1
   6    4    5 2
   7    4   15 1
   8    5    7 1
   9    6   16 1
  10    6   17 1
  11    7    8 1
  12    7   18 1
  13    7   19 1
  14    8    9 2
  15    8   10 1
  16    8   14 1
  17   10   11 1
  18   11   12 1
  19   11   20 1
  20   11   21 1
  21   12   13 1
  22   12   22 1
  23   12   23 1
  24   13   14 1
  25   13   24 1
  26   13   25 1

#	End of record

