#	Name: ASD01915214
#	Creating user name:	WinNT
#	Creation time:	15. 06. 2019 20:05

#	Modifying user name:	WinNT
#	Modification time:	15. 06. 2019 20:05

#	Program:	/corina/corina34_cracker 3.40 0067  02.08.2006

@<TRIPOS>MOLECULE
ASD01915214
  30   31    0    0    0
SMALL
NO_CHARGES


@<TRIPOS>ATOM
   1 C1            -0.0169     1.3928     0.0088 C.ar    
   2 C2             0.0017    -0.0035    -0.0062 C.ar    
   3 C3            -1.1853    -0.7137    -0.0026 C.ar    
   4 C4            -2.3962    -0.0466     0.0164 C.ar    
   5 C5            -2.4270     1.3502     0.0316 C.ar    
   6 C6            -1.2341     2.0707     0.0333 C.ar    
   7 F7            -1.1613    -2.0644    -0.0180 F       
   8 C8             1.2526     2.1503     0.0050 C.2     
   9 N9             2.4292     1.4934    -0.0131 N.am    
  10 O10            1.2351     3.3656     0.0180 O.2     
  11 C11            3.6221     2.2041    -0.1258 C.ar    
  12 C12            4.8341     1.5316    -0.0357 C.ar    
  13 C13            6.0150     2.2473    -0.1496 C.ar    
  14 C14            5.9431     3.6163    -0.3504 C.ar    
  15 C15            4.6984     4.2259    -0.4310 C.ar    
  16 N16            3.5889     3.5135    -0.3233 N.ar    
  17 O17            4.6190     5.5659    -0.6276 O.3     
  18 C18            3.3100     6.1343    -0.7017 C.3     
  19 C19           -3.6818     2.0400     0.0503 C.1     
  20 N20           -4.6772     2.5872     0.0651 N.1     
  21 H21            0.9446    -0.5298    -0.0210 H       
  22 H22           -3.3199    -0.6062     0.0192 H       
  23 H23           -1.2531     3.1505     0.0450 H       
  24 H24            2.4455     0.5258     0.0524 H       
  25 H25            4.8558     0.4634     0.1216 H       
  26 H26            6.9708     1.7489    -0.0828 H       
  27 H27            6.8453     4.2027    -0.4429 H       
  28 H28            2.7775     5.9429     0.2299 H       
  29 H29            3.3894     7.2098    -0.8605 H       
  30 H30            2.7647     5.6838    -1.5311 H       
@<TRIPOS>BOND
   1    1    2 ar
   2    1    8 1
   3    1    6 ar
   4    2    3 ar
   5    2   21 1
   6    3    4 ar
   7    3    7 1
   8    4    5 ar
   9    4   22 1
  10    5    6 ar
  11    5   19 1
  12    6   23 1
  13    8    9 am
  14    8   10 2
  15    9   11 1
  16    9   24 1
  17   11   12 ar
  18   11   16 ar
  19   12   13 ar
  20   12   25 1
  21   13   14 ar
  22   13   26 1
  23   14   15 ar
  24   14   27 1
  25   15   16 ar
  26   15   17 1
  27   17   18 1
  28   18   28 1
  29   18   29 1
  30   18   30 1
  31   19   20 3

#	End of record

