#	Name: ASD01917769
#	Creating user name:	WinNT
#	Creation time:	15. 06. 2019 20:10

#	Modifying user name:	WinNT
#	Modification time:	15. 06. 2019 20:10

#	Program:	/corina/corina34_cracker 3.40 0067  02.08.2006

@<TRIPOS>MOLECULE
ASD01917769
  43   46    0    0    0
SMALL
NO_CHARGES


@<TRIPOS>ATOM
   1 C1            -0.0138     1.3190    -0.0041 C.2     
   2 C2            -0.0103    -0.0278     0.0051 C.2     
   3 C3            -1.2498    -0.8859     0.0244 C.3     
   4 C4            -2.4380    -0.0295     0.4798 C.3     
   5 N5            -2.4045     1.2579    -0.2303 N.am    
   6 C6            -1.2654     2.1614     0.0139 C.3     
   7 C7            -3.3897     1.6029    -1.0828 C.2     
   8 O8            -4.2642     0.8040    -1.3563 O.2     
   9 C9            -3.4069     2.9519    -1.6847 C.ar    
  10 O10            1.2628     1.7241    -0.0254 O.3     
  11 C11            2.0354     0.6264    -0.0257 C.2     
  12 N12            1.2680    -0.4289    -0.0069 N.2     
  13 C13            3.5423     0.6146    -0.0450 C.3     
  14 O14            4.0012     0.5995    -1.3982 O.3     
  15 C15            5.3460     0.5874    -1.5935 C.ar    
  16 C16            5.8610     0.5725    -2.8816 C.ar    
  17 C17            7.2284     0.5602    -3.0775 C.ar    
  18 C18            8.0836     0.5628    -1.9911 C.ar    
  19 C19            7.5729     0.5773    -0.7063 C.ar    
  20 C20            6.2063     0.5958    -0.5052 C.ar    
  21 C21           -3.8641     3.1298    -2.9918 C.ar    
  22 C22           -3.8789     4.3907    -3.5498 C.ar    
  23 C23           -3.4411     5.4815    -2.8161 C.ar    
  24 C24           -2.9851     5.3116    -1.5154 C.ar    
  25 C25           -2.9712     4.0543    -0.9461 C.ar    
  26 F26           -2.5594     6.3788    -0.8047 F       
  27 F27           -3.4574     6.7145    -3.3681 F       
  28 H28           -1.4412    -1.2736    -0.9761 H       
  29 H29           -1.1096    -1.7145     0.7186 H       
  30 H30           -3.3693    -0.5476     0.2511 H       
  31 H31           -2.3711     0.1448     1.5536 H       
  32 H32           -1.3748     2.6418     0.9862 H       
  33 H33           -1.2160     2.9165    -0.7706 H       
  34 H34            3.9191     1.5060     0.4565 H       
  35 H35            3.9053    -0.2739     0.4717 H       
  36 H36            5.1933     0.5701    -3.7306 H       
  37 H37            7.6297     0.5482    -4.0801 H       
  38 H38            9.1524     0.5532    -2.1463 H       
  39 H39            8.2430     0.5786     0.1407 H       
  40 H40            5.8079     0.6071     0.4986 H       
  41 H41           -4.2054     2.2807    -3.5654 H       
  42 H42           -4.2322     4.5282    -4.5611 H       
  43 H43           -2.6166     3.9221     0.0654 H       
@<TRIPOS>BOND
   1    1    2 2
   2    1   10 1
   3    1    6 1
   4    2    3 1
   5    2   12 1
   6    3    4 1
   7    3   28 1
   8    3   29 1
   9    4    5 1
  10    4   30 1
  11    4   31 1
  12    5    6 1
  13    5    7 am
  14    6   32 1
  15    6   33 1
  16    7    8 2
  17    7    9 1
  18    9   21 ar
  19    9   25 ar
  20   10   11 1
  21   11   12 2
  22   11   13 1
  23   13   14 1
  24   13   34 1
  25   13   35 1
  26   14   15 1
  27   15   16 ar
  28   15   20 ar
  29   16   17 ar
  30   16   36 1
  31   17   18 ar
  32   17   37 1
  33   18   19 ar
  34   18   38 1
  35   19   20 ar
  36   19   39 1
  37   20   40 1
  38   21   22 ar
  39   21   41 1
  40   22   23 ar
  41   22   42 1
  42   23   24 ar
  43   23   27 1
  44   24   25 ar
  45   24   26 1
  46   25   43 1

#	End of record

