#	Name: ASD03090328
#	Creating user name:	WinNT
#	Creation time:	15. 06. 2019 20:28

#	Modifying user name:	WinNT
#	Modification time:	15. 06. 2019 20:28

#	Program:	/corina/corina34_cracker 3.40 0067  02.08.2006

@<TRIPOS>MOLECULE
ASD03090328
  46   48    0    0    0
SMALL
NO_CHARGES


@<TRIPOS>ATOM
   1 N1            -0.0453     1.3297     0.9360 N.ar    
   2 C2            -0.0109     0.0110     0.9347 C.ar    
   3 C3             1.1738    -0.6667     0.7320 C.ar    
   4 C4             2.3476     0.0659     0.5257 C.ar    
   5 C5             2.2644     1.4625     0.5346 C.ar    
   6 C6             1.0378     2.0582     0.7454 C.ar    
   7 C7             3.6417    -0.6175     0.3045 C.2     
   8 N8             5.6443    -3.3899    -0.5065 N.pl3   
   9 C9             4.8104    -4.4934    -0.6675 C.ar    
  10 C10            5.1407    -5.4851    -1.5867 C.ar    
  11 C11            4.3184    -6.5770    -1.7487 C.ar    
  12 C12            3.1505    -6.6895    -0.9883 C.ar    
  13 C13            2.8220    -5.6918    -0.0656 C.ar    
  14 C14            3.6514    -4.6051     0.0951 C.ar    
  15 N15            3.8030    -1.8781    -0.0439 N.2     
  16 C16            5.1035    -2.1517    -0.1542 C.2     
  17 N17            5.7939    -1.0690     0.1223 N.2     
  18 N18            4.8665    -0.0570     0.4186 N.pl3   
  19 C19            5.1669     1.3288     0.7867 C.3     
  20 C20            5.3099     2.1736    -0.4809 C.3     
  21 C21            5.6190     3.5991    -0.1023 C.2     
  22 N22            5.7883     4.5298    -1.0624 N.am    
  23 C23            6.0887     5.9156    -0.6944 C.3     
  24 O24            5.7154     3.9089     1.0663 O.2     
  25 C25            5.6719     4.1555    -2.4740 C.3     
  26 C26            2.2925    -7.8239    -1.1545 C.1     
  27 N27            1.6118    -8.7238    -1.2864 N.1     
  28 H28           -0.9224    -0.5457     1.0949 H       
  29 H29            1.1946    -1.7465     0.7330 H       
  30 H30            3.1471     2.0651     0.3796 H       
  31 H31            0.9634     3.1356     0.7541 H       
  32 H32            6.6008    -3.4813    -0.6391 H       
  33 H33            6.0430    -5.3976    -2.1737 H       
  34 H34            4.5749    -7.3458    -2.4625 H       
  35 H35            1.9206    -5.7756     0.5233 H       
  36 H36            3.3984    -3.8342     0.8079 H       
  37 H37            4.3570     1.7260     1.3985 H       
  38 H38            6.0985     1.3608     1.3517 H       
  39 H39            6.1199     1.7764    -1.0928 H       
  40 H40            4.3784     2.1415    -1.0459 H       
  41 H41            7.1687     6.0485    -0.6301 H       
  42 H42            5.6842     6.5882    -1.4507 H       
  43 H43            5.6368     6.1411     0.2716 H       
  44 H44            5.4468     3.0918    -2.5505 H       
  45 H45            4.8703     4.7308    -2.9375 H       
  46 H46            6.6118     4.3656    -2.9843 H       
@<TRIPOS>BOND
   1    1    2 ar
   2    1    6 ar
   3    2    3 ar
   4    2   28 1
   5    3    4 ar
   6    3   29 1
   7    4    5 ar
   8    4    7 1
   9    5    6 ar
  10    5   30 1
  11    6   31 1
  12    7   15 2
  13    7   18 1
  14    8    9 1
  15    8   16 1
  16    8   32 1
  17    9   10 ar
  18    9   14 ar
  19   10   11 ar
  20   10   33 1
  21   11   12 ar
  22   11   34 1
  23   12   13 ar
  24   12   26 1
  25   13   14 ar
  26   13   35 1
  27   14   36 1
  28   15   16 1
  29   16   17 2
  30   17   18 1
  31   18   19 1
  32   19   20 1
  33   19   37 1
  34   19   38 1
  35   20   21 1
  36   20   39 1
  37   20   40 1
  38   21   22 am
  39   21   24 2
  40   22   23 1
  41   22   25 1
  42   23   41 1
  43   23   42 1
  44   23   43 1
  45   25   44 1
  46   25   45 1
  47   25   46 1
  48   26   27 3

#	End of record

