#	Name: ASD01883311
#	Creating user name:	WinNT
#	Creation time:	15. 06. 2019 19:46

#	Modifying user name:	WinNT
#	Modification time:	15. 06. 2019 19:46

#	Program:	/corina/corina34_cracker 3.40 0067  02.08.2006

@<TRIPOS>MOLECULE
ASD01883311
  48   49    0    0    0
SMALL
NO_CHARGES


@<TRIPOS>ATOM
   1 N1            -0.0162     1.3424     0.0094 N.am    
   2 C2             0.0021    -0.0041     0.0020 C.2     
   3 C3            -1.2200    -0.7260     0.0103 C.2     
   4 C4            -2.4186    -0.0172     0.0260 C.2     
   5 C5            -2.3789     1.3778     0.0331 C.2     
   6 C6            -1.1865     2.0253     0.0299 C.2     
   7 O7             1.0648    -0.6011    -0.0121 O.2     
   8 C8            -1.2204    -2.1580     0.0021 C.1     
   9 N9            -1.2207    -3.2939    -0.0043 N.1     
  10 C10            1.2492     2.0805     0.0013 C.3     
  11 C11            1.6760     2.3452    -1.4439 C.3     
  12 C12            2.9975     3.1162    -1.4524 C.3     
  13 C13            4.1025     2.2406    -0.8580 C.3     
  14 C14            3.3610     3.4895    -2.8910 C.3     
  15 C15           -3.7381    -0.7452     0.0347 C.3     
  16 C16           -4.2313    -0.8897     1.4758 C.3     
  17 C17           -5.5508    -1.6177     1.4845 C.ar    
  18 C18           -5.5775    -2.9967     1.5813 C.ar    
  19 C19           -6.7858    -3.6664     1.5895 C.ar    
  20 C20           -7.9730    -2.9541     1.5005 C.ar    
  21 C21           -7.9434    -1.5705     1.4034 C.ar    
  22 C22           -6.7328    -0.9051     1.4013 C.ar    
  23 O23           -9.1628    -3.6106     1.5079 O.3     
  24 C24          -10.3446    -2.8128     1.4130 C.3     
  25 H25           -3.2991     1.9430     0.0453 H       
  26 H26           -1.1699     3.1052     0.0358 H       
  27 H27            1.1196     3.0296     0.5215 H       
  28 H28            2.0163     1.4921     0.5047 H       
  29 H29            1.8056     1.3962    -1.9641 H       
  30 H30            0.9088     2.9337    -1.9473 H       
  31 H31            2.8929     4.0232    -0.8571 H       
  32 H32            4.2072     1.3336    -1.4534 H       
  33 H33            5.0440     2.7899    -0.8640 H       
  34 H34            3.8436     1.9747     0.1669 H       
  35 H35            2.5738     4.1132    -3.3144 H       
  36 H36            4.3025     4.0387    -2.8970 H       
  37 H37            3.4656     2.5824    -3.4863 H       
  38 H38           -4.4685    -0.1803    -0.5445 H       
  39 H39           -3.6105    -1.7337    -0.4065 H       
  40 H40           -3.5009    -1.4545     2.0549 H       
  41 H41           -4.3589     0.0989     1.9170 H       
  42 H42           -4.6531    -3.5507     1.6503 H       
  43 H43           -6.8061    -4.7435     1.6648 H       
  44 H44           -8.8662    -1.0137     1.3340 H       
  45 H45           -6.7092     0.1720     1.3258 H       
  46 H46          -10.3857    -2.1226     2.2556 H       
  47 H47          -10.3276    -2.2478     0.4810 H       
  48 H48          -11.2219    -3.4595     1.4299 H       
@<TRIPOS>BOND
   1    1    2 am
   2    1   10 1
   3    1    6 1
   4    2    3 1
   5    2    7 2
   6    3    4 2
   7    3    8 1
   8    4    5 1
   9    4   15 1
  10    5    6 2
  11    5   25 1
  12    6   26 1
  13    8    9 3
  14   10   11 1
  15   10   27 1
  16   10   28 1
  17   11   12 1
  18   11   29 1
  19   11   30 1
  20   12   13 1
  21   12   14 1
  22   12   31 1
  23   13   32 1
  24   13   33 1
  25   13   34 1
  26   14   35 1
  27   14   36 1
  28   14   37 1
  29   15   16 1
  30   15   38 1
  31   15   39 1
  32   16   17 1
  33   16   40 1
  34   16   41 1
  35   17   18 ar
  36   17   22 ar
  37   18   19 ar
  38   18   42 1
  39   19   20 ar
  40   19   43 1
  41   20   21 ar
  42   20   23 1
  43   21   22 ar
  44   21   44 1
  45   22   45 1
  46   23   24 1
  47   24   46 1
  48   24   47 1
  49   24   48 1

#	End of record

