#	Name: ASD06170113
#	Creating user name:	WinNT
#	Creation time:	15. 06. 2019 21:05

#	Modifying user name:	WinNT
#	Modification time:	15. 06. 2019 21:05

#	Program:	/corina/corina34_cracker 3.40 0067  02.08.2006

@<TRIPOS>MOLECULE
ASD06170113
  68   72    0    0    0
SMALL
NO_CHARGES


@<TRIPOS>ATOM
   1 N1             0.3447     1.3318    -0.9061 N.pl3   
   2 N2             0.0279     0.0415    -0.4709 N.am    
   3 C3             1.1612    -0.5627    -0.0572 C.2     
   4 C4             2.2476     0.4115    -0.2471 C.2     
   5 C5             1.6668     1.5496    -0.7719 C.2     
   6 C6             3.6688     0.2131     0.0609 C.2     
   7 O7             4.4669     1.1080    -0.1458 O.2     
   8 N8             4.0900    -0.9604     0.5728 N.am    
   9 C9            -1.2498    -0.5273    -0.4646 C.ar    
  10 C10           -2.0628    -0.4247    -1.5859 C.ar    
  11 C11           -3.3238    -0.9879    -1.5766 C.ar    
  12 C12           -3.7773    -1.6531    -0.4523 C.ar    
  13 C13           -2.9704    -1.7568     0.6660 C.ar    
  14 C14           -1.7060    -1.2011     0.6610 C.ar    
  15 O15            1.2645    -1.6913     0.3858 O.2     
  16 C16           -0.6179     2.3009    -1.4356 C.3     
  17 C17           -1.0292     3.2699    -0.3254 C.3     
  18 C18           -1.9367     4.3559    -0.9066 C.3     
  19 C19           -1.7825     2.5057     0.7653 C.3     
  20 C20            5.4540    -1.1982     0.7419 C.ar    
  21 C21            6.3344    -0.1249     0.8215 C.ar    
  22 C22            7.6848    -0.3720     0.9891 C.ar    
  23 C23            8.1120    -1.6951     1.0722 C.ar    
  24 C24            7.1771    -2.7140     0.9848 C.ar    
  25 N25            5.8953    -2.4425     0.8302 N.ar    
  26 O26            9.4305    -1.9833     1.2365 O.3     
  27 N27           11.0239    -1.5686     5.0179 N.ar    
  28 C28            9.7767    -1.2320     4.7866 C.ar    
  29 C29            9.2059    -1.3574     3.5266 C.ar    
  30 C30            9.9614    -1.8496     2.4767 C.ar    
  31 C31           11.3033    -2.2090     2.7371 C.ar    
  32 C32           12.1306    -2.7150     1.7238 C.ar    
  33 C33           13.4185    -3.0520     2.0061 C.ar    
  34 C34           13.9307    -2.9003     3.2979 C.ar    
  35 C35           13.1439    -2.4070     4.3139 C.ar    
  36 C36           11.8117    -2.0512     4.0496 C.ar    
  37 O37           15.2197    -3.2442     3.5536 O.3     
  38 C38           15.9855    -3.7505     2.4585 C.3     
  39 C39            2.3908     2.8207    -1.1340 C.3     
  40 H40            3.4445    -1.6397     0.8237 H       
  41 H41           -1.7095     0.0954    -2.4640 H       
  42 H42           -3.9566    -0.9084    -2.4482 H       
  43 H43           -4.7639    -2.0924    -0.4474 H       
  44 H44           -3.3278    -2.2764     1.5428 H       
  45 H45           -1.0745    -1.2865     1.5329 H       
  46 H46           -0.1603     2.8581    -2.2531 H       
  47 H47           -1.4987     1.7744    -1.8031 H       
  48 H48           -0.1391     3.7309     0.1027 H       
  49 H49           -2.8268     3.8949    -1.3347 H       
  50 H50           -2.2298     5.0463    -0.1156 H       
  51 H51           -1.4001     4.9003    -1.6836 H       
  52 H52           -2.6726     2.0447     0.3373 H       
  53 H53           -1.1360     1.7320     1.1794 H       
  54 H54           -2.0755     3.1961     1.5563 H       
  55 H55            5.9683     0.8888     0.7528 H       
  56 H56            8.3917     0.4420     1.0538 H       
  57 H57            7.5010    -3.7424     1.0480 H       
  58 H58            9.1775    -0.8471     5.5985 H       
  59 H59            8.1765    -1.0724     3.3669 H       
  60 H60           11.7463    -2.8371     0.7219 H       
  61 H61           14.0521    -3.4416     1.2230 H       
  62 H62           13.5491    -2.2936     5.3085 H       
  63 H63           15.5129    -4.6532     2.0712 H       
  64 H64           16.0337    -2.9990     1.6705 H       
  65 H65           16.9941    -3.9857     2.7984 H       
  66 H66            2.4097     3.4865    -0.2712 H       
  67 H67            3.4120     2.5845    -1.4332 H       
  68 H68            1.8744     3.3104    -1.9596 H       
@<TRIPOS>BOND
   1    1    2 1
   2    1    5 1
   3    1   16 1
   4    2    3 am
   5    2    9 1
   6    3    4 1
   7    3   15 2
   8    4    5 2
   9    4    6 1
  10    5   39 1
  11    6    7 2
  12    6    8 am
  13    8   20 1
  14    8   40 1
  15    9   10 ar
  16    9   14 ar
  17   10   11 ar
  18   10   41 1
  19   11   12 ar
  20   11   42 1
  21   12   13 ar
  22   12   43 1
  23   13   14 ar
  24   13   44 1
  25   14   45 1
  26   16   17 1
  27   16   46 1
  28   16   47 1
  29   17   18 1
  30   17   19 1
  31   17   48 1
  32   18   49 1
  33   18   50 1
  34   18   51 1
  35   19   52 1
  36   19   53 1
  37   19   54 1
  38   20   21 ar
  39   20   25 ar
  40   21   22 ar
  41   21   55 1
  42   22   23 ar
  43   22   56 1
  44   23   24 ar
  45   23   26 1
  46   24   25 ar
  47   24   57 1
  48   26   30 1
  49   27   28 ar
  50   27   36 ar
  51   28   29 ar
  52   28   58 1
  53   29   30 ar
  54   29   59 1
  55   30   31 ar
  56   31   32 ar
  57   31   36 ar
  58   32   33 ar
  59   32   60 1
  60   33   34 ar
  61   33   61 1
  62   34   35 ar
  63   34   37 1
  64   35   36 ar
  65   35   62 1
  66   37   38 1
  67   38   63 1
  68   38   64 1
  69   38   65 1
  70   39   66 1
  71   39   67 1
  72   39   68 1

#	End of record

