#	Name: ASD03730269
#	Creating user name:	WinNT
#	Creation time:	15. 06. 2019 20:44

#	Modifying user name:	WinNT
#	Modification time:	15. 06. 2019 20:44

#	Program:	/corina/corina34_cracker 3.40 0067  02.08.2006

@<TRIPOS>MOLECULE
ASD03730269
  57   62    0    0    0
SMALL
NO_CHARGES


@<TRIPOS>ATOM
   1 O1            -0.4685     1.1327     1.3386 O.3     
   2 C2            -0.3980    -0.3036     1.4137 C.3     
   3 O3             0.6787    -0.6405     0.5192 O.3     
   4 C4             1.4981     0.4519     0.5061 C.ar    
   5 C5             0.7915     1.5423     1.0084 C.ar    
   6 C6             2.8116     0.6061     0.1007 C.ar    
   7 C7             3.4357     1.8468     0.1894 C.ar    
   8 C8             2.7168     2.9309     0.6839 C.ar    
   9 C9             1.4088     2.7788     1.0944 C.ar    
  10 O10            4.7112     2.2060    -0.1336 O.3     
  11 C11            3.6399     4.1187     0.6288 C.3     
  12 C12            4.7791     3.6375    -0.2805 C.3     
  13 N13            3.0721     6.2976     1.0197 N.am    
  14 C14            2.9622     5.3400     0.0771 C.2     
  15 C15            4.1378     4.5194     1.9854 C.ar    
  16 C16            4.8362     3.8569     2.9853 C.ar    
  17 C17            5.1591     4.5258     4.1654 C.ar    
  18 C18            4.7814     5.8437     4.3304 C.ar    
  19 C19            4.0872     6.5020     3.3359 C.ar    
  20 C20            3.7577     5.8466     2.1507 C.ar    
  21 O21            2.4225     5.4445    -1.0040 O.2     
  22 C22            2.5354     7.6530     0.8750 C.3     
  23 C23            1.1021     7.6936     1.4089 C.3     
  24 C24            0.5415     9.1092     1.2578 C.3     
  25 C25           -0.8918     9.1498     1.7916 C.3     
  26 C26           -1.4524    10.5653     1.6406 C.3     
  27 C27            5.2384     2.4406     2.7989 C.ar    
  28 C28            4.7219     1.4515     3.6334 C.ar    
  29 C29            5.0994     0.1350     3.4549 C.ar    
  30 C30            5.9892    -0.2019     2.4490 C.ar    
  31 C31            6.5042     0.7766     1.6186 C.ar    
  32 C32            6.1292     2.0947     1.7851 C.ar    
  33 Cl33           4.4578    -1.0991     4.4937 Cl      
  34 H34           -0.1659    -0.6230     2.4297 H       
  35 H35           -1.3321    -0.7512     1.0744 H       
  36 H36            3.3566    -0.2420    -0.2867 H       
  37 H37            0.8646     3.6265     1.4838 H       
  38 H38            5.7395     4.0173     0.0682 H       
  39 H39            4.5984     3.9295    -1.3150 H       
  40 H40            5.7021     4.0152     4.9470 H       
  41 H41            5.0306     6.3626     5.2442 H       
  42 H42            3.7967     7.5326     3.4771 H       
  43 H43            3.1534     8.3508     1.4400 H       
  44 H44            2.5390     7.9348    -0.1779 H       
  45 H45            0.4840     6.9958     0.8439 H       
  46 H46            1.0984     7.4118     2.4618 H       
  47 H47            1.1596     9.8069     1.8228 H       
  48 H48            0.5452     9.3909     0.2049 H       
  49 H49           -1.5098     8.4520     1.2266 H       
  50 H50           -0.8954     8.8680     2.8446 H       
  51 H51           -1.4487    10.8471     0.5876 H       
  52 H52           -2.4734    10.5942     2.0209 H       
  53 H53           -0.8343    11.2631     2.2056 H       
  54 H54            4.0281     1.7139     4.4184 H       
  55 H55            6.2824    -1.2323     2.3127 H       
  56 H56            7.1981     0.5085     0.8357 H       
  57 H57            6.5288     2.8571     1.1329 H       
@<TRIPOS>BOND
   1    1    2 1
   2    1    5 1
   3    2    3 1
   4    2   34 1
   5    2   35 1
   6    3    4 1
   7    4    5 ar
   8    4    6 ar
   9    5    9 ar
  10    6    7 ar
  11    6   36 1
  12    7    8 ar
  13    7   10 1
  14    8    9 ar
  15    8   11 1
  16    9   37 1
  17   10   12 1
  18   11   12 1
  19   11   14 1
  20   11   15 1
  21   12   38 1
  22   12   39 1
  23   13   14 am
  24   13   20 1
  25   13   22 1
  26   14   21 2
  27   15   16 ar
  28   15   20 ar
  29   16   17 ar
  30   16   27 1
  31   17   18 ar
  32   17   40 1
  33   18   19 ar
  34   18   41 1
  35   19   20 ar
  36   19   42 1
  37   22   23 1
  38   22   43 1
  39   22   44 1
  40   23   24 1
  41   23   45 1
  42   23   46 1
  43   24   25 1
  44   24   47 1
  45   24   48 1
  46   25   26 1
  47   25   49 1
  48   25   50 1
  49   26   51 1
  50   26   52 1
  51   26   53 1
  52   27   28 ar
  53   27   32 ar
  54   28   29 ar
  55   28   54 1
  56   29   30 ar
  57   29   33 1
  58   30   31 ar
  59   30   55 1
  60   31   32 ar
  61   31   56 1
  62   32   57 1

#	End of record

