#	Name: ASD01810417
#	Creating user name:	WinNT
#	Creation time:	15. 06. 2019 19:24

#	Modifying user name:	WinNT
#	Modification time:	15. 06. 2019 19:24

#	Program:	/corina/corina34_cracker 3.40 0067  02.08.2006

@<TRIPOS>MOLECULE
ASD01810417
  48   51    0    0    0
SMALL
NO_CHARGES


@<TRIPOS>ATOM
   1 C1             7.3215     1.2835    -0.2130 C.ar    
   2 C2             7.2615    -0.1105    -0.2159 C.ar    
   3 C3             4.8627    -0.0228    -0.0953 C.ar    
   4 C4             4.9367     1.3828    -0.0930 C.ar    
   5 C5             6.1762     2.0235    -0.1524 C.ar    
   6 N6             3.6378    -0.6555    -0.0375 N.pl3   
   7 C7             2.4789     0.0134     0.0225 C.2     
   8 C8             2.4259     1.3922     0.0309 C.2     
   9 C9             3.6845     2.1543    -0.0275 C.2     
  10 O10            3.6894     3.3732    -0.0227 O.2     
  11 C11            1.1340     2.0890     0.0976 C.2     
  12 C12            3.6034    -2.1201    -0.0425 C.3     
  13 C13            3.4639    -2.6145    -1.4592 C.ar    
  14 O14            0.1007     1.4503     0.1459 O.2     
  15 O15            1.0945     3.4365     0.1053 O.3     
  16 C16            4.5865    -2.7484    -2.2560 C.ar    
  17 C17            4.4645    -3.2008    -3.5543 C.ar    
  18 C18            3.2074    -3.5227    -4.0618 C.ar    
  19 C19            2.0799    -3.3859    -3.2547 C.ar    
  20 C20            2.2142    -2.9380    -1.9561 C.ar    
  21 C21            3.0699    -4.0091    -5.4570 C.ar    
  22 C22            1.8129    -4.3310    -5.9646 C.ar    
  23 C23            1.6908    -4.7830    -7.2630 C.ar    
  24 C24            2.8135    -4.9170    -8.0598 C.ar    
  25 C25            4.0638    -4.5992    -7.5609 C.ar    
  26 C26            4.1968    -4.1401    -6.2661 C.ar    
  27 C27            6.0375    -0.7636    -0.1573 C.ar    
  28 F28            5.9884    -2.1137    -0.1611 F       
  29 S29            8.7503    -1.0495    -0.2952 S.3     
  30 C30           10.0362     0.2287    -0.3546 C.3     
  31 H31            8.2799     1.7797    -0.2544 H       
  32 H32            6.2285     3.1023    -0.1501 H       
  33 H33            1.5554    -0.5449     0.0653 H       
  34 H34            4.5273    -2.5067     0.3879 H       
  35 H35            2.7550    -2.4656     0.5482 H       
  36 H36            0.2214     3.8498     0.1501 H       
  37 H37            5.5604    -2.4983    -1.8617 H       
  38 H38            5.3417    -3.3047    -4.1757 H       
  39 H39            1.1032    -3.6340    -3.6431 H       
  40 H40            1.3409    -2.8315    -1.3297 H       
  41 H41            0.9357    -4.2274    -5.3431 H       
  42 H42            0.7169    -5.0328    -7.6574 H       
  43 H43            2.7134    -5.2713    -9.0751 H       
  44 H44            4.9372    -4.7061    -8.1872 H       
  45 H45            5.1735    -3.8919    -5.8776 H       
  46 H46            9.8873     0.8531    -1.2356 H       
  47 H47            9.9771     0.8455     0.5421 H       
  48 H48           11.0167    -0.2445    -0.4062 H       
@<TRIPOS>BOND
   1    1    2 ar
   2    1    5 ar
   3    1   31 1
   4    2   29 1
   5    2   27 ar
   6    3    4 ar
   7    3    6 1
   8    3   27 ar
   9    4    5 ar
  10    4    9 1
  11    5   32 1
  12    6    7 1
  13    6   12 1
  14    7    8 2
  15    7   33 1
  16    8    9 1
  17    8   11 1
  18    9   10 2
  19   11   14 2
  20   11   15 1
  21   12   13 1
  22   12   34 1
  23   12   35 1
  24   13   16 ar
  25   13   20 ar
  26   15   36 1
  27   16   17 ar
  28   16   37 1
  29   17   18 ar
  30   17   38 1
  31   18   19 ar
  32   18   21 1
  33   19   20 ar
  34   19   39 1
  35   20   40 1
  36   21   22 ar
  37   21   26 ar
  38   22   23 ar
  39   22   41 1
  40   23   24 ar
  41   23   42 1
  42   24   25 ar
  43   24   43 1
  44   25   26 ar
  45   25   44 1
  46   26   45 1
  47   27   28 1
  48   29   30 1
  49   30   46 1
  50   30   47 1
  51   30   48 1

#	End of record

