#	Name: ASD03092176
#	Creating user name:	WinNT
#	Creation time:	15. 06. 2019 20:32

#	Modifying user name:	WinNT
#	Modification time:	15. 06. 2019 20:32

#	Program:	/corina/corina34_cracker 3.40 0067  02.08.2006

@<TRIPOS>MOLECULE
ASD03092176
  39   41    0    0    0
SMALL
NO_CHARGES


@<TRIPOS>ATOM
   1 C1             0.5180     1.3508     0.4747 C.3     
   2 C2             0.4716    -0.1467     0.3125 C.2     
   3 C3             0.1751    -0.8563    -0.8670 C.2     
   4 C4             0.2635    -2.1718    -0.4904 C.2     
   5 O5             0.5885    -2.1652     0.8151 O.3     
   6 N6             0.7036    -1.0376     1.2357 N.2     
   7 C7             0.0463    -3.3544    -1.3437 C.2     
   8 C8             0.8918    -3.6047    -2.4025 C.2     
   9 N9             0.7313    -4.7298    -3.1498 N.pl3   
  10 C10            1.6485    -5.0350    -4.1592 C.ar    
  11 C11            2.7277    -4.1931    -4.3967 C.ar    
  12 C12            3.6323    -4.4971    -5.3948 C.ar    
  13 C13            3.4643    -5.6390    -6.1584 C.ar    
  14 Cl14           4.6032    -6.0177    -7.4127 Cl      
  15 C15            2.3904    -6.4798    -5.9238 C.ar    
  16 C16            1.4858    -6.1838    -4.9233 C.ar    
  17 C17           -1.0686    -4.2634    -1.0659 C.2     
  18 O18           -0.8479    -5.4018    -0.6951 O.2     
  19 C19           -2.4620    -3.7981    -1.2358 C.ar    
  20 C20           -2.7188    -2.5333    -1.7678 C.ar    
  21 C21           -4.0209    -2.1054    -1.9236 C.ar    
  22 C22           -5.0713    -2.9268    -1.5540 C.ar    
  23 C23           -4.8237    -4.1815    -1.0257 C.ar    
  24 C24           -3.5264    -4.6241    -0.8703 C.ar    
  25 H25            1.5252     1.7084     0.2606 H       
  26 H26           -0.1863     1.8131    -0.2169 H       
  27 H27            0.2488     1.6140     1.4976 H       
  28 H28           -0.0660    -0.4574    -1.8412 H       
  29 H29            1.6820    -2.9075    -2.6390 H       
  30 H30           -0.0197    -5.3204    -2.9821 H       
  31 H31            2.8589    -3.3014    -3.8016 H       
  32 H32            4.4715    -3.8429    -5.5799 H       
  33 H33            2.2618    -7.3702    -6.5213 H       
  34 H34            0.6504    -6.8426    -4.7376 H       
  35 H35           -1.8999    -1.8910    -2.0563 H       
  36 H36           -4.2210    -1.1269    -2.3347 H       
  37 H37           -6.0889    -2.5870    -1.6781 H       
  38 H38           -5.6480    -4.8176    -0.7389 H       
  39 H39           -3.3346    -5.6057    -0.4627 H       
@<TRIPOS>BOND
   1    1    2 1
   2    1   25 1
   3    1   26 1
   4    1   27 1
   5    2    6 2
   6    2    3 1
   7    3    4 2
   8    3   28 1
   9    4    5 1
  10    4    7 1
  11    5    6 1
  12    7    8 2
  13    7   17 1
  14    8    9 1
  15    8   29 1
  16    9   10 1
  17    9   30 1
  18   10   16 ar
  19   10   11 ar
  20   11   12 ar
  21   11   31 1
  22   12   13 ar
  23   12   32 1
  24   13   14 1
  25   13   15 ar
  26   15   16 ar
  27   15   33 1
  28   16   34 1
  29   17   18 2
  30   17   19 1
  31   19   24 ar
  32   19   20 ar
  33   20   21 ar
  34   20   35 1
  35   21   22 ar
  36   21   36 1
  37   22   23 ar
  38   22   37 1
  39   23   24 ar
  40   23   38 1
  41   24   39 1

#	End of record

