#	Name: ASD01912373
#	Creating user name:	WinNT
#	Creation time:	15. 06. 2019 19:59

#	Modifying user name:	WinNT
#	Modification time:	15. 06. 2019 19:59

#	Program:	/corina/corina34_cracker 3.40 0067  02.08.2006

@<TRIPOS>MOLECULE
ASD01912373
  46   48    0    0    0
SMALL
NO_CHARGES


@<TRIPOS>ATOM
   1 C1             7.6107     8.0855     0.6204 C.2     
   2 C2             8.8197     7.8845     1.4973 C.3     
   3 C3             6.7457     6.9513     0.2960 C.2     
   4 C4             5.6237     7.0130    -0.4882 C.2     
   5 C5             4.9751     5.8215    -0.6512 C.2     
   6 C6             5.5507     4.7626    -0.0059 C.2     
   7 S7             6.9916     5.2996     0.8467 S.3     
   8 C8             5.0438     3.3799    -0.0265 C.2     
   9 O9             3.8493     3.1689     0.0603 O.2     
  10 N10            5.9037     2.3485    -0.1417 N.am    
  11 C11            7.3325     2.5953    -0.3745 C.3     
  12 C12            8.1374     1.9373     0.7534 C.3     
  13 C13            7.6594     0.5107     0.9127 C.2     
  14 C14            6.1784     0.2652     1.1009 C.3     
  15 C15            5.4236     0.9652    -0.0297 C.3     
  16 C16            8.5216    -0.5047     0.8874 C.2     
  17 C17            8.0501    -1.8482     1.0398 C.1     
  18 C18            7.6637    -2.9497     1.1648 C.1     
  19 C19            7.1922    -4.2933     1.3173 C.ar    
  20 C20            8.1011    -5.3551     1.2899 C.ar    
  21 C21            7.6294    -6.6463     1.4386 C.ar    
  22 C22            6.2648    -6.8387     1.6100 C.ar    
  23 C23            5.4206    -5.7434     1.6275 C.ar    
  24 N24            5.8934    -4.5218     1.4893 N.ar    
  25 C25            3.9395    -5.9500     1.8134 C.3     
  26 O26            7.3519     9.1893     0.1875 O.2     
  27 H27            8.8855     6.8368     1.7908 H       
  28 H28            9.7180     8.1649     0.9474 H       
  29 H29            8.7299     8.5064     2.3880 H       
  30 H30            5.2791     7.9309    -0.9413 H       
  31 H31            4.0773     5.7238    -1.2435 H       
  32 H32            7.6263     2.1651    -1.3320 H       
  33 H33            7.5218     3.6687    -0.3804 H       
  34 H34            9.1974     1.9429     0.4994 H       
  35 H35            7.9796     2.4832     1.6836 H       
  36 H36            5.9772    -0.8057     1.0706 H       
  37 H37            5.8579     0.6723     2.0599 H       
  38 H38            4.3562     0.9656     0.1915 H       
  39 H39            5.6044     0.4386    -0.9668 H       
  40 H40            9.5760    -0.3145     0.7519 H       
  41 H41            9.1564    -5.1696     1.1543 H       
  42 H42            8.3073    -7.4868     1.4214 H       
  43 H43            5.8660    -7.8354     1.7284 H       
  44 H44            3.6998    -5.9255     2.8764 H       
  45 H45            3.3948    -5.1577     1.2998 H       
  46 H46            3.6525    -6.9162     1.3984 H       
@<TRIPOS>BOND
   1    1    2 1
   2    1    3 1
   3    1   26 2
   4    2   27 1
   5    2   28 1
   6    2   29 1
   7    3    4 2
   8    3    7 1
   9    4    5 1
  10    4   30 1
  11    5    6 2
  12    5   31 1
  13    6    7 1
  14    6    8 1
  15    8    9 2
  16    8   10 am
  17   10   11 1
  18   10   15 1
  19   11   12 1
  20   11   32 1
  21   11   33 1
  22   12   13 1
  23   12   34 1
  24   12   35 1
  25   13   14 1
  26   13   16 2
  27   14   15 1
  28   14   36 1
  29   14   37 1
  30   15   38 1
  31   15   39 1
  32   16   17 1
  33   16   40 1
  34   17   18 3
  35   18   19 1
  36   19   20 ar
  37   19   24 ar
  38   20   21 ar
  39   20   41 1
  40   21   22 ar
  41   21   42 1
  42   22   23 ar
  43   22   43 1
  44   23   24 ar
  45   23   25 1
  46   25   44 1
  47   25   45 1
  48   25   46 1

#	End of record

