#	Name: ASD08070229
#	Creating user name:	WinNT
#	Creation time:	15. 06. 2019 21:14

#	Modifying user name:	WinNT
#	Modification time:	15. 06. 2019 21:14

#	Program:	/corina/corina34_cracker 3.40 0067  02.08.2006

@<TRIPOS>MOLECULE
ASD08070229
  24   25    0    0    0
SMALL
NO_CHARGES


@<TRIPOS>ATOM
   1 C1            -0.0169     1.3922     0.0097 C.ar    
   2 C2             0.0021    -0.0041     0.0020 C.ar    
   3 C3            -1.2652    -0.7624     0.0096 C.2     
   4 N4            -1.2442    -2.1099     0.0021 N.am    
   5 N5            -3.6356    -2.3160     0.0225 N.2     
   6 O6            -2.3274    -0.1710     0.0225 O.2     
   7 C7            -2.4367    -2.8235     0.0092 C.2     
   8 C8             1.2238    -0.6811    -0.0133 C.ar    
   9 C9             2.4042     0.0323    -0.0207 C.ar    
  10 C10            2.3788     1.4199    -0.0130 C.ar    
  11 C11            1.1688     2.0957     0.0022 C.ar    
  12 Cl12           3.9239    -0.8067    -0.0392 Cl      
  13 F13            3.5376     2.1144    -0.0199 F       
  14 S14           -2.5988    -4.5810     0.0008 S.3     
  15 C15           -4.3526    -4.3847     0.0172 C.2     
  16 N16           -4.6098    -3.1166     0.0265 N.2     
  17 F17           -6.6551    -4.9529    -0.0806 F       
  18 F18           -5.1361    -6.3456    -1.0667 F       
  19 C19           -5.3699    -5.4965     0.0203 C.3     
  20 F20           -5.2631    -6.2230     1.2110 F       
  21 H21           -0.9589     1.9203     0.0170 H       
  22 H22           -0.3967    -2.5817    -0.0082 H       
  23 H23            1.2441    -1.7608    -0.0189 H       
  24 H24            1.1548     3.1756     0.0077 H       
@<TRIPOS>BOND
   1    1    2 ar
   2    1   11 ar
   3    1   21 1
   4    2    3 1
   5    2    8 ar
   6    3    4 am
   7    3    6 2
   8    4    7 1
   9    4   22 1
  10    5    7 2
  11    5   16 1
  12    7   14 1
  13    8    9 ar
  14    8   23 1
  15    9   10 ar
  16    9   12 1
  17   10   11 ar
  18   10   13 1
  19   11   24 1
  20   14   15 1
  21   15   16 2
  22   15   19 1
  23   17   19 1
  24   18   19 1
  25   19   20 1

#	End of record

