#	Name: ASD01150932
#	Creating user name:	WinNT
#	Creation time:	15. 06. 2019 19:05

#	Modifying user name:	WinNT
#	Modification time:	15. 06. 2019 19:05

#	Program:	/corina/corina34_cracker 3.40 0067  02.08.2006

@<TRIPOS>MOLECULE
ASD01150932
  41   44    0    0    0
SMALL
NO_CHARGES


@<TRIPOS>ATOM
   1 C1            -0.0168     1.3893     0.0097 C.ar    
   2 C2             0.0021    -0.0041     0.0020 C.ar    
   3 N3             1.1443    -0.6600    -0.0120 N.ar    
   4 C4             2.3060    -0.0358    -0.0197 C.ar    
   5 C5             2.3726     1.3481    -0.0133 C.ar    
   6 C6             1.1970     2.0824     0.0018 C.ar    
   7 C7            -1.3043     2.1252     0.0198 C.2     
   8 N8            -1.3105     3.4376     0.0270 N.2     
   9 N9            -2.4929     4.1804     0.0367 N.am    
  10 C10           -3.7018     3.5757     0.0396 C.2     
  11 C11           -3.7598     2.1248     0.0320 C.2     
  12 C12           -4.7862     1.0886     0.0321 C.2     
  13 N13           -4.1334    -0.0397     0.0228 N.2     
  14 O14           -2.9315     0.1060     0.0171 O.3     
  15 C15           -2.5635     1.3914     0.0158 C.2     
  16 O16           -4.7258     4.2371     0.0489 O.2     
  17 C17           -2.4218     5.6436     0.0443 C.3     
  18 C18           -1.6707     6.1112     1.2925 C.3     
  19 C19           -1.6937     6.1176    -1.1871 C.ar    
  20 C20           -6.2808     1.2811     0.0415 C.3     
  21 C21           -0.5863     5.4274    -1.6436 C.ar    
  22 C22           -2.1370     7.2390    -1.8631 C.ar    
  23 C23           -1.4699     7.6739    -2.9928 C.ar    
  24 C24           -0.3584     6.9867    -3.4471 C.ar    
  25 C25            0.0816     5.8613    -2.7732 C.ar    
  26 Cl26           0.4799     7.5323    -4.8660 Cl      
  27 F27            3.5695     1.9747    -0.0209 F       
  28 H28           -0.9289    -0.5515     0.0080 H       
  29 H29            3.2193    -0.6122    -0.0308 H       
  30 H30            1.2184     3.1622     0.0074 H       
  31 H31           -3.4306     6.0564     0.0513 H       
  32 H32           -2.1973     5.7684     2.1832 H       
  33 H33           -0.6619     5.6985     1.2854 H       
  34 H34           -1.6177     7.1999     1.2982 H       
  35 H35           -6.6469     1.3331    -0.9839 H       
  36 H36           -6.7520     0.4420     0.5534 H       
  37 H37           -6.5246     2.2074     0.5617 H       
  38 H38           -0.2428     4.5492    -1.1172 H       
  39 H39           -3.0048     7.7752    -1.5086 H       
  40 H40           -1.8165     8.5499    -3.5210 H       
  41 H41            0.9469     5.3223    -3.1295 H       
@<TRIPOS>BOND
   1    1    2 ar
   2    1    6 ar
   3    1    7 1
   4    2    3 ar
   5    2   28 1
   6    3    4 ar
   7    4    5 ar
   8    4   29 1
   9    5    6 ar
  10    5   27 1
  11    6   30 1
  12    7    8 2
  13    7   15 1
  14    8    9 1
  15    9   10 am
  16    9   17 1
  17   10   11 1
  18   10   16 2
  19   11   12 1
  20   11   15 2
  21   12   13 2
  22   12   20 1
  23   13   14 1
  24   14   15 1
  25   17   18 1
  26   17   19 1
  27   17   31 1
  28   18   32 1
  29   18   33 1
  30   18   34 1
  31   19   22 ar
  32   19   21 ar
  33   20   35 1
  34   20   36 1
  35   20   37 1
  36   21   25 ar
  37   21   38 1
  38   22   23 ar
  39   22   39 1
  40   23   24 ar
  41   23   40 1
  42   24   25 ar
  43   24   26 1
  44   25   41 1

#	End of record

