#	Name: ASD01880942
#	Creating user name:	WinNT
#	Creation time:	15. 06. 2019 19:41

#	Modifying user name:	WinNT
#	Modification time:	15. 06. 2019 19:41

#	Program:	/corina/corina34_cracker 3.40 0067  02.08.2006

@<TRIPOS>MOLECULE
ASD01880942
  48   51    0    0    0
SMALL
NO_CHARGES


@<TRIPOS>ATOM
   1 N1             0.0007     1.3130    -0.2012 N.ar    
   2 C2             0.0232    -0.0041    -0.2230 C.ar    
   3 N3             1.1362    -0.6836    -0.0324 N.ar    
   4 C4             2.2857    -0.0626     0.1906 C.ar    
   5 C5             2.3106     1.3180     0.2224 C.ar    
   6 C6             1.1139     2.0072     0.0166 C.ar    
   7 C7             3.5971     2.0618     0.4730 C.3     
   8 O8             4.6355     1.1283     0.7771 O.3     
   9 C9             5.8675     1.6381     1.0305 C.ar    
  10 C10            6.9241     0.7843     1.3336 C.ar    
  11 C11            8.1699     1.3000     1.5893 C.ar    
  12 C12            8.3867     2.6816     1.5476 C.ar    
  13 C13            7.3216     3.5358     1.2425 C.ar    
  14 C14            6.0736     3.0109     0.9813 C.ar    
  15 C15            9.4959     0.6718     1.9396 C.3     
  16 N16           10.4473     1.7791     2.0870 N.am    
  17 C17            9.8028     2.9364     1.8599 C.2     
  18 O18           10.3164     4.0376     1.9055 O.2     
  19 Cl19           7.5722     5.2528     1.1868 Cl      
  20 N20            1.0867     3.3922     0.0385 N.3     
  21 C21           -0.1588     3.8852     0.6443 C.3     
  22 C22           -0.1211     5.4146     0.7027 C.3     
  23 O23            0.0819     5.9321    -0.6150 O.3     
  24 C24            1.2862     5.4728    -1.2347 C.3     
  25 C25            1.2627     3.9440    -1.3127 C.3     
  26 C26           12.6861     1.5053     1.1412 C.3     
  27 C27           11.8664     1.6451     2.4255 C.3     
  28 H28           -0.8962    -0.5420    -0.4018 H       
  29 H29            3.1919    -0.6293     0.3459 H       
  30 H30            3.8680     2.6293    -0.4174 H       
  31 H31            3.4647     2.7442     1.3125 H       
  32 H32            6.7636    -0.2832     1.3678 H       
  33 H33            5.2513     3.6702     0.7454 H       
  34 H34            9.4137     0.1211     2.8766 H       
  35 H35            9.8177     0.0052     1.1395 H       
  36 H36           -1.0085     3.5648     0.0414 H       
  37 H37           -0.2561     3.4847     1.6534 H       
  38 H38           -1.0659     5.7871     1.0985 H       
  39 H39            0.6964     5.7341     1.3491 H       
  40 H40            1.3592     5.8875    -2.2401 H       
  41 H41            2.1445     5.7940    -0.6447 H       
  42 H42            2.2031     3.5865    -1.7322 H       
  43 H43            0.4358     3.6246    -1.9469 H       
  44 H44           13.7419     1.4056     1.3930 H       
  45 H45           12.3577     0.6210     0.5951 H       
  46 H46           12.5425     2.3897     0.5205 H       
  47 H47           12.1947     2.5295     2.9716 H       
  48 H48           12.0099     0.7607     3.0462 H       
@<TRIPOS>BOND
   1    1    2 ar
   2    1    6 ar
   3    2    3 ar
   4    2   28 1
   5    3    4 ar
   6    4    5 ar
   7    4   29 1
   8    5    6 ar
   9    5    7 1
  10    6   20 1
  11    7    8 1
  12    7   30 1
  13    7   31 1
  14    8    9 1
  15    9   10 ar
  16    9   14 ar
  17   10   11 ar
  18   10   32 1
  19   11   12 ar
  20   11   15 1
  21   12   13 ar
  22   12   17 1
  23   13   14 ar
  24   13   19 1
  25   14   33 1
  26   15   16 1
  27   15   34 1
  28   15   35 1
  29   16   17 am
  30   16   27 1
  31   17   18 2
  32   20   21 1
  33   20   25 1
  34   21   22 1
  35   21   36 1
  36   21   37 1
  37   22   23 1
  38   22   38 1
  39   22   39 1
  40   23   24 1
  41   24   25 1
  42   24   40 1
  43   24   41 1
  44   25   42 1
  45   25   43 1
  46   26   27 1
  47   26   44 1
  48   26   45 1
  49   26   46 1
  50   27   47 1
  51   27   48 1

#	End of record

