#	Name: ASD01881751
#	Creating user name:	WinNT
#	Creation time:	15. 06. 2019 19:43

#	Modifying user name:	WinNT
#	Modification time:	15. 06. 2019 19:43

#	Program:	/corina/corina34_cracker 3.40 0067  02.08.2006

@<TRIPOS>MOLECULE
ASD01881751
  42   45    0    0    0
SMALL
NO_CHARGES


@<TRIPOS>ATOM
   1 N1            -0.0272     1.3106     0.0050 N.am    
   2 C2             0.0025    -0.0228    -0.0027 C.2     
   3 C3             1.3275    -0.7555    -0.0227 C.3     
   4 C4             1.9615    -0.5746    -1.4040 C.3     
   5 C5             2.7390     0.7273    -1.4724 C.3     
   6 C6             1.8675     1.9668    -1.3839 C.3     
   7 C7             1.2251     2.0841     0.0001 C.3     
   8 O8            -1.0352    -0.6505     0.0068 O.2     
   9 O9             2.1918    -0.2121     0.9772 O.3     
  10 N10            1.8834    -2.0334     6.1339 N.pl3   
  11 N11            2.9806    -1.3072     6.6202 N.2     
  12 N12            3.4895    -0.6104     5.6662 N.2     
  13 C13            2.8028    -0.8087     4.5232 C.ar    
  14 C14            1.7673    -1.7183     4.7992 C.ar    
  15 C15            2.9400    -0.3015     3.2238 C.ar    
  16 C16            2.0609    -0.7021     2.2390 C.ar    
  17 C17            1.0399    -1.6044     2.5277 C.ar    
  18 C18            0.8931    -2.1061     3.7902 C.ar    
  19 C19            1.0325    -2.9512     6.8954 C.3     
  20 C20           -0.1395    -2.1763     7.5010 C.3     
  21 C21           -1.2116    -2.9801     8.2396 C.3     
  22 C22           -0.2296    -2.1102     9.0269 C.3     
  23 Br23           4.3230     0.9242     2.8225 Br      
  24 H24           -0.8796     1.7736     0.0099 H       
  25 H25            1.1626    -1.8158     0.1686 H       
  26 H26            2.6374    -1.4069    -1.6004 H       
  27 H27            1.1768    -0.5642    -2.1605 H       
  28 H28            3.4568     0.7474    -0.6524 H       
  29 H29            3.2890     0.7551    -2.4130 H       
  30 H30            2.4794     2.8493    -1.5709 H       
  31 H31            1.0837     1.9085    -2.1392 H       
  32 H32            1.0094     3.1305     0.2160 H       
  33 H33            1.9044     1.6852     0.7534 H       
  34 H34            0.3583    -1.9095     1.7475 H       
  35 H35            0.0980    -2.8051     4.0041 H       
  36 H36            0.6508    -3.7275     6.2322 H       
  37 H37            1.6160    -3.4099     7.6936 H       
  38 H38           -0.4649    -1.3009     6.9389 H       
  39 H39           -2.2421    -2.6333     8.1638 H       
  40 H40           -1.0819    -4.0610     8.2941 H       
  41 H41            0.5462    -2.6187     9.5994 H       
  42 H42           -0.6141    -1.1911     9.4691 H       
@<TRIPOS>BOND
   1    1    2 am
   2    1    7 1
   3    1   24 1
   4    2    3 1
   5    2    8 2
   6    3    4 1
   7    3    9 1
   8    3   25 1
   9    4    5 1
  10    4   26 1
  11    4   27 1
  12    5    6 1
  13    5   28 1
  14    5   29 1
  15    6    7 1
  16    6   30 1
  17    6   31 1
  18    7   32 1
  19    7   33 1
  20    9   16 1
  21   10   11 1
  22   10   14 1
  23   10   19 1
  24   11   12 2
  25   12   13 1
  26   13   14 ar
  27   13   15 ar
  28   14   18 ar
  29   15   16 ar
  30   15   23 1
  31   16   17 ar
  32   17   18 ar
  33   17   34 1
  34   18   35 1
  35   19   20 1
  36   19   36 1
  37   19   37 1
  38   20   21 1
  39   20   22 1
  40   20   38 1
  41   21   22 1
  42   21   39 1
  43   21   40 1
  44   22   41 1
  45   22   42 1

#	End of record

