#	Name: ASD02039377
#	Creating user name:	WinNT
#	Creation time:	15. 06. 2019 20:18

#	Modifying user name:	WinNT
#	Modification time:	15. 06. 2019 20:18

#	Program:	/corina/corina34_cracker 3.40 0067  02.08.2006

@<TRIPOS>MOLECULE
ASD02039377
  50   52    0    0    0
SMALL
NO_CHARGES


@<TRIPOS>ATOM
   1 C1            -0.1272     1.5230    -0.1519 C.ar    
   2 C2            -0.1252     0.1390    -0.0543 C.ar    
   3 C3            -1.3219    -0.5487    -0.1404 C.ar    
   4 C4            -2.5057     1.4158    -0.4010 C.ar    
   5 C5            -1.3377     2.1712    -0.3281 C.ar    
   6 C6            -3.8107     2.0954    -0.5901 C.ar    
   7 C7             1.1588     2.3035    -0.0618 C.3     
   8 N8             1.7988     2.3439    -1.3790 N.am    
   9 C9             1.3651     3.3276    -2.3743 C.3     
  10 C10            2.7866     1.4761    -1.6752 C.2     
  11 C11            3.1631     0.4306    -0.7080 C.2     
  12 C12            4.1815    -0.4666    -0.8460 C.2     
  13 N13            2.5635     0.1881     0.4856 N.2     
  14 C14            3.1668    -0.8094     1.0648 C.2     
  15 N15            4.1768    -1.2402     0.2650 N.pl3   
  16 O16            3.3672     1.5563    -2.7409 O.2     
  17 C17            5.0956    -2.3445     0.5526 C.3     
  18 C18           -3.8581     3.4723    -0.7985 C.ar    
  19 N19           -2.4595     0.0926    -0.3137 N.ar    
  20 C20           -4.9929     1.3580    -0.5657 C.ar    
  21 C21           -6.2051     1.9942    -0.7426 C.ar    
  22 C22           -6.2490     3.3614    -0.9444 C.ar    
  23 C23           -5.0770     4.0999    -0.9746 C.ar    
  24 C24            2.5139     4.2937    -2.6707 C.3     
  25 C25            0.9603     2.6063    -3.6614 C.3     
  26 C26           -7.4836     1.1967    -0.7162 C.3     
  27 F27           -5.1260     5.4356    -1.1716 F       
  28 H28            0.8022    -0.3962     0.0872 H       
  29 H29           -1.3239    -1.6260    -0.0648 H       
  30 H30           -1.3768     3.2482    -0.3993 H       
  31 H31            0.9446     3.3197     0.2694 H       
  32 H32            1.8269     1.8219     0.6521 H       
  33 H33            0.5124     3.8850    -1.9866 H       
  34 H34            4.8611    -0.5449    -1.6817 H       
  35 H35            2.9081    -1.2254     2.0274 H       
  36 H36            4.6793    -3.2740     0.1644 H       
  37 H37            6.0570    -2.1504     0.0772 H       
  38 H38            5.2340    -2.4306     1.6304 H       
  39 H39           -2.9446     4.0479    -0.8220 H       
  40 H40           -4.9607     0.2899    -0.4089 H       
  41 H41           -7.1997     3.8546    -1.0830 H       
  42 H42            3.3329     3.7505    -3.1421 H       
  43 H43            2.1646     5.0785    -3.3417 H       
  44 H44            2.8624     4.7403    -1.7395 H       
  45 H45            0.2075     1.8516    -3.4337 H       
  46 H46            0.5497     3.3273    -4.3683 H       
  47 H47            1.8353     2.1260    -4.0994 H       
  48 H48           -7.8626     1.1516     0.3048 H       
  49 H49           -8.2236     1.6752    -1.3577 H       
  50 H50           -7.2892     0.1866    -1.0766 H       
@<TRIPOS>BOND
   1    1    2 ar
   2    1    7 1
   3    1    5 ar
   4    2    3 ar
   5    2   28 1
   6    3   19 ar
   7    3   29 1
   8    4    5 ar
   9    4    6 1
  10    4   19 ar
  11    5   30 1
  12    6   18 ar
  13    6   20 ar
  14    7    8 1
  15    7   31 1
  16    7   32 1
  17    8    9 1
  18    8   10 am
  19    9   24 1
  20    9   25 1
  21    9   33 1
  22   10   11 1
  23   10   16 2
  24   11   12 2
  25   11   13 1
  26   12   15 1
  27   12   34 1
  28   13   14 2
  29   14   15 1
  30   14   35 1
  31   15   17 1
  32   17   36 1
  33   17   37 1
  34   17   38 1
  35   18   23 ar
  36   18   39 1
  37   20   21 ar
  38   20   40 1
  39   21   22 ar
  40   21   26 1
  41   22   23 ar
  42   22   41 1
  43   23   27 1
  44   24   42 1
  45   24   43 1
  46   24   44 1
  47   25   45 1
  48   25   46 1
  49   25   47 1
  50   26   48 1
  51   26   49 1
  52   26   50 1

#	End of record

