#	Name: ASD02039294
#	Creating user name:	WinNT
#	Creation time:	15. 06. 2019 20:18

#	Modifying user name:	WinNT
#	Modification time:	15. 06. 2019 20:18

#	Program:	/corina/corina34_cracker 3.40 0067  02.08.2006

@<TRIPOS>MOLECULE
ASD02039294
  51   53    0    0    0
SMALL
NO_CHARGES


@<TRIPOS>ATOM
   1 C1             0.1335     1.1878    -0.3145 C.ar    
   2 C2             0.5149    -0.0898     0.0526 C.ar    
   3 C3            -0.3899    -1.1338    -0.0150 C.ar    
   4 C4            -1.6814    -0.9044    -0.4509 C.ar    
   5 C5            -2.0703     0.3831    -0.8221 C.ar    
   6 C6            -1.1556     1.4301    -0.7456 C.ar    
   7 C7            -3.4559     0.6368    -1.2918 C.2     
   8 C8             1.1256     2.3195    -0.2378 C.3     
   9 N9             1.9420     2.3366    -1.4542 N.am    
  10 C10            1.4487     3.0101    -2.6580 C.3     
  11 C11            3.1467     1.7326    -1.4658 C.2     
  12 C12            3.5981     0.9666    -0.2910 C.2     
  13 C13            4.7308     0.2110    -0.2076 C.2     
  14 C14            2.4316     4.1091    -3.0666 C.3     
  15 N15            2.9655     0.8890     0.9077 N.2     
  16 C16            3.6581     0.1230     1.7003 C.2     
  17 N17            4.7610    -0.3154     1.0393 N.pl3   
  18 O18            3.8614     1.8198    -2.4460 O.2     
  19 C19            5.7968    -1.1998     1.5788 C.3     
  20 F20           -2.5648    -1.9243    -0.5177 F       
  21 C21            1.3190     1.9937    -3.7943 C.3     
  22 C22           -3.9088     0.5682    -2.6236 C.2     
  23 C23           -4.5228     0.9730    -0.5110 C.2     
  24 N24           -5.5924     1.1138    -1.3203 N.pl3   
  25 N25           -5.1835     0.8558    -2.6343 N.2     
  26 C26           -4.5089     1.1538     0.9851 C.3     
  27 C27           -3.0695     0.2235    -3.8268 C.3     
  28 H28            1.5233    -0.2733     0.3930 H       
  29 H29           -0.0869    -2.1296     0.2728 H       
  30 H30           -1.4514     2.4286    -1.0317 H       
  31 H31            0.5916     3.2652    -0.1454 H       
  32 H32            1.7699     2.1797     0.6302 H       
  33 H33            0.4737     3.4524    -2.4532 H       
  34 H34            5.4631     0.0610    -0.9871 H       
  35 H35            3.4224     3.6768    -3.2066 H       
  36 H36            2.0993     4.5656    -3.9989 H       
  37 H37            2.4734     4.8680    -2.2852 H       
  38 H38            3.3992    -0.1220     2.7198 H       
  39 H39            5.5286    -2.2374     1.3797 H       
  40 H40            6.7513    -0.9737     1.1036 H       
  41 H41            5.8813    -1.0464     2.6547 H       
  42 H42            0.5849     1.2355    -3.5215 H       
  43 H43            0.9954     2.5029    -4.7021 H       
  44 H44            2.2844     1.5186    -3.9686 H       
  45 H45           -6.4904     1.3503    -1.0401 H       
  46 H46           -4.2815     2.1929     1.2234 H       
  47 H47           -5.4862     0.8934     1.3916 H       
  48 H48           -3.7491     0.5061     1.4223 H       
  49 H49           -3.0922    -0.8541    -3.9891 H       
  50 H50           -3.4676     0.7317    -4.7051 H       
  51 H51           -2.0416     0.5437    -3.6566 H       
@<TRIPOS>BOND
   1    1    2 ar
   2    1    8 1
   3    1    6 ar
   4    2    3 ar
   5    2   28 1
   6    3    4 ar
   7    3   29 1
   8    4    5 ar
   9    4   20 1
  10    5    6 ar
  11    5    7 1
  12    6   30 1
  13    7   22 1
  14    7   23 2
  15    8    9 1
  16    8   31 1
  17    8   32 1
  18    9   10 1
  19    9   11 am
  20   10   21 1
  21   10   14 1
  22   10   33 1
  23   11   12 1
  24   11   18 2
  25   12   13 2
  26   12   15 1
  27   13   17 1
  28   13   34 1
  29   14   35 1
  30   14   36 1
  31   14   37 1
  32   15   16 2
  33   16   17 1
  34   16   38 1
  35   17   19 1
  36   19   39 1
  37   19   40 1
  38   19   41 1
  39   21   42 1
  40   21   43 1
  41   21   44 1
  42   22   27 1
  43   22   25 2
  44   23   24 1
  45   23   26 1
  46   24   25 1
  47   24   45 1
  48   26   46 1
  49   26   47 1
  50   26   48 1
  51   27   49 1
  52   27   50 1
  53   27   51 1

#	End of record

