#	Name: ASD06350007
#	Creating user name:	WinNT
#	Creation time:	15. 06. 2019 21:06

#	Modifying user name:	WinNT
#	Modification time:	15. 06. 2019 21:06

#	Program:	/corina/corina34_cracker 3.40 0067  02.08.2006

@<TRIPOS>MOLECULE
ASD06350007
  31   32    0    0    0
SMALL
NO_CHARGES


@<TRIPOS>ATOM
   1 C1            -0.0176     1.4478     0.0100 C.3     
   2 O2             0.0021    -0.0041     0.0020 O.3     
   3 C3             0.6010    -0.6023    -1.0473 C.2     
   4 O4             1.0933     0.0714    -1.9315 O.2     
   5 C5             0.6587    -2.0684    -1.1223 C.2     
   6 C6             1.2752    -2.7000    -2.2022 C.2     
   7 C7             1.3106    -4.0933    -2.2392 C.2     
   8 C8             0.7510    -4.8163    -1.2351 C.2     
   9 N9             0.1497    -4.2092    -0.1826 N.am    
  10 C10            0.0933    -2.8667    -0.0945 C.2     
  11 O11           -0.4516    -2.3390     0.8594 O.2     
  12 C12           -0.4161    -4.9908     0.8327 C.ar    
  13 C13            0.3493    -5.3679     1.9281 C.ar    
  14 C14           -0.2105    -6.1387     2.9281 C.ar    
  15 C15           -1.5341    -6.5358     2.8386 C.ar    
  16 C16           -2.2992    -6.1611     1.7464 C.ar    
  17 C17           -1.7452    -5.3850     0.7478 C.ar    
  18 C18           -2.5782    -4.9776    -0.4401 C.3     
  19 F19           -2.0797    -7.2901     3.8176 F       
  20 H20            1.0050     1.8251     0.0023 H       
  21 H21           -0.5448     1.8089    -0.8731 H       
  22 H22           -0.5278     1.7993     0.9068 H       
  23 H23            1.7180    -2.1188    -2.9976 H       
  24 H24            1.7837    -4.5986    -3.0682 H       
  25 H25            0.7853    -5.8950    -1.2760 H       
  26 H26            1.3818    -5.0590     1.9979 H       
  27 H27            0.3845    -6.4322     3.7803 H       
  28 H28           -3.3311    -6.4724     1.6782 H       
  29 H29           -3.0728    -4.0295    -0.2291 H       
  30 H30           -1.9354    -4.8656    -1.3133 H       
  31 H31           -3.3287    -5.7430    -0.6373 H       
@<TRIPOS>BOND
   1    1    2 1
   2    1   20 1
   3    1   21 1
   4    1   22 1
   5    2    3 1
   6    3    4 2
   7    3    5 1
   8    5    6 2
   9    5   10 1
  10    6    7 1
  11    6   23 1
  12    7    8 2
  13    7   24 1
  14    8    9 1
  15    8   25 1
  16    9   10 am
  17    9   12 1
  18   10   11 2
  19   12   13 ar
  20   12   17 ar
  21   13   14 ar
  22   13   26 1
  23   14   15 ar
  24   14   27 1
  25   15   16 ar
  26   15   19 1
  27   16   17 ar
  28   16   28 1
  29   17   18 1
  30   18   29 1
  31   18   30 1
  32   18   31 1

#	End of record

