#	Name: ASD03092478
#	Creating user name:	WinNT
#	Creation time:	15. 06. 2019 20:32

#	Modifying user name:	WinNT
#	Modification time:	15. 06. 2019 20:32

#	Program:	/corina/corina34_cracker 3.40 0067  02.08.2006

@<TRIPOS>MOLECULE
ASD03092478
  59   62    0    0    0
SMALL
NO_CHARGES


@<TRIPOS>ATOM
   1 C1            -0.2567     1.7564    -0.2646 C.2     
   2 C2            -0.3452     0.2822    -0.2987 C.ar    
   3 C3             0.7892    -0.4816    -0.5824 C.ar    
   4 C4             0.7012    -1.8566    -0.6125 C.ar    
   5 C5            -0.5110    -2.4820    -0.3621 C.ar    
   6 C6            -1.6400    -1.7286    -0.0800 C.ar    
   7 C7            -1.5619    -0.3528    -0.0417 C.ar    
   8 O8             0.8224     2.3035    -0.3830 O.2     
   9 N9            -1.3731     2.4950    -0.1079 N.am    
  10 C10            2.1070     0.1966    -0.8557 C.3     
  11 F11           -0.5919    -3.8302    -0.3937 F       
  12 C12           -1.2854     3.9570    -0.0741 C.3     
  13 S13           -4.9451     5.5591    -0.2677 S.3     
  14 C14           -4.4167     5.2008     1.3180 C.2     
  15 N15           -3.2242     4.6859     1.2901 N.2     
  16 C16           -2.6634     4.5388     0.1094 C.2     
  17 C17           -3.4261     4.9538    -0.9236 C.2     
  18 N18           -5.1531     5.4271     2.4665 N.3     
  19 C19           -4.2843     5.8489     3.5749 C.3     
  20 C20           -5.1445     6.1455     4.8061 C.3     
  21 O21           -5.9153     4.9862     5.1334 O.3     
  22 C22           -6.7734     4.5480     4.0765 C.3     
  23 C23           -5.9296     4.2353     2.8379 C.3     
  24 C24           -3.5175     7.1100     3.1715 C.3     
  25 C25           -2.8614     5.9411    -4.5027 C.ar    
  26 C26           -3.2230     6.0282    -3.1758 C.ar    
  27 C27           -3.0538     4.9081    -2.3510 C.ar    
  28 C28           -2.5206     3.7435    -2.9194 C.ar    
  29 C29           -2.1864     3.7455    -4.2563 C.ar    
  30 N30           -2.3624     4.8236    -4.9978 N.ar    
  31 C31           -1.6116     2.5001    -4.8805 C.3     
  32 C32           -3.0439     7.1361    -5.4026 C.3     
  33 H33            1.5778    -2.4482    -0.8318 H       
  34 H34           -2.5816    -2.2207     0.1143 H       
  35 H35           -2.4411     0.2330     0.1826 H       
  36 H36           -2.2347     2.0586    -0.0174 H       
  37 H37            2.5953     0.4357     0.0890 H       
  38 H38            2.7451    -0.4697    -1.4361 H       
  39 H39            1.9336     1.1144    -1.4176 H       
  40 H40           -0.6481     4.2637     0.7553 H       
  41 H41           -0.8607     4.3173    -1.0111 H       
  42 H42           -3.5783     5.0518     3.8076 H       
  43 H43           -4.5003     6.4035     5.6467 H       
  44 H44           -5.8137     6.9785     4.5905 H       
  45 H45           -7.3072     3.6507     4.3893 H       
  46 H46           -7.4899     5.3346     3.8396 H       
  47 H47           -6.5844     3.9558     2.0125 H       
  48 H48           -5.2499     3.4123     3.0588 H       
  49 H49           -4.2225     7.8766     2.8500 H       
  50 H50           -2.9464     7.4764     4.0246 H       
  51 H51           -2.8374     6.8754     2.3527 H       
  52 H52           -3.6303     6.9458    -2.7776 H       
  53 H53           -2.3735     2.8580    -2.3189 H       
  54 H54           -2.4208     1.8814    -5.2684 H       
  55 H55           -0.9434     2.7775    -5.6958 H       
  56 H56           -1.0548     1.9407    -4.1288 H       
  57 H57           -2.1414     7.7470    -5.3828 H       
  58 H58           -3.2316     6.7982    -6.4217 H       
  59 H59           -3.8906     7.7275    -5.0541 H       
@<TRIPOS>BOND
   1    1    2 1
   2    1    8 2
   3    1    9 am
   4    2    3 ar
   5    2    7 ar
   6    3    4 ar
   7    3   10 1
   8    4    5 ar
   9    4   33 1
  10    5    6 ar
  11    5   11 1
  12    6    7 ar
  13    6   34 1
  14    7   35 1
  15    9   12 1
  16    9   36 1
  17   10   37 1
  18   10   38 1
  19   10   39 1
  20   12   16 1
  21   12   40 1
  22   12   41 1
  23   13   14 1
  24   13   17 1
  25   14   15 2
  26   14   18 1
  27   15   16 1
  28   16   17 2
  29   17   27 1
  30   18   19 1
  31   18   23 1
  32   19   20 1
  33   19   24 1
  34   19   42 1
  35   20   21 1
  36   20   43 1
  37   20   44 1
  38   21   22 1
  39   22   23 1
  40   22   45 1
  41   22   46 1
  42   23   47 1
  43   23   48 1
  44   24   49 1
  45   24   50 1
  46   24   51 1
  47   25   26 ar
  48   25   30 ar
  49   25   32 1
  50   26   27 ar
  51   26   52 1
  52   27   28 ar
  53   28   29 ar
  54   28   53 1
  55   29   30 ar
  56   29   31 1
  57   31   54 1
  58   31   55 1
  59   31   56 1
  60   32   57 1
  61   32   58 1
  62   32   59 1

#	End of record

