#	Name: ASD03730215
#	Creating user name:	WinNT
#	Creation time:	15. 06. 2019 20:44

#	Modifying user name:	WinNT
#	Modification time:	15. 06. 2019 20:44

#	Program:	/corina/corina34_cracker 3.40 0067  02.08.2006

@<TRIPOS>MOLECULE
ASD03730215
  66   71    0    0    0
SMALL
NO_CHARGES


@<TRIPOS>ATOM
   1 N1            -0.4450     1.2664     1.1362 N.3     
   2 C2            -0.3931    -0.2133     1.1932 C.3     
   3 O3             0.7176    -0.5410     0.3388 O.3     
   4 C4             1.5628     0.5303     0.3685 C.ar    
   5 C5             0.8787     1.6483     0.8437 C.ar    
   6 C6             2.8988     0.6404     0.0210 C.ar    
   7 C7             3.5610     1.8590     0.1339 C.ar    
   8 C8             2.8601     2.9712     0.5900 C.ar    
   9 C9             1.5320     2.8653     0.9483 C.ar    
  10 O10            4.8634     2.1697    -0.1278 O.3     
  11 C11            3.8224     4.1275     0.5615 C.3     
  12 C12            4.9897     3.5961    -0.2819 C.3     
  13 N13            3.3140     6.3333     0.8775 N.am    
  14 C14            3.2140     5.3587    -0.0480 C.2     
  15 C15            4.2643     4.5407     1.9336 C.ar    
  16 C16            4.8849     3.8774     2.9830 C.ar    
  17 C17            5.1720     4.5620     4.1634 C.ar    
  18 C18            4.8378     5.8968     4.2798 C.ar    
  19 C19            4.2210     6.5558     3.2359 C.ar    
  20 C20            3.9256     5.8842     2.0510 C.ar    
  21 O21            2.7288     5.4564    -1.1553 O.2     
  22 C22           -0.8831     1.8277     2.4211 C.3     
  23 C23            0.2152     1.6255     3.4670 C.3     
  24 C24           -0.2411     2.2101     4.8052 C.3     
  25 C25            0.8572     2.0080     5.8511 C.3     
  26 C26            0.4009     2.5926     7.1893 C.3     
  27 C27            5.2415     2.4430     2.8493 C.ar    
  28 C28            6.1412     2.0363     1.8670 C.ar    
  29 C29            6.4725     0.6964     1.7450 C.ar    
  30 C30            5.9092    -0.2395     2.6000 C.ar    
  31 C31            5.0126     0.1625     3.5790 C.ar    
  32 C32            4.6816     1.5017     3.7097 C.ar    
  33 O33            4.4624    -0.7574     4.4145 O.3     
  34 C34            4.8526    -2.1193     4.2273 C.3     
  35 O35            7.3500     0.2987     0.7864 O.3     
  36 C36            7.6463    -1.0975     0.7172 C.3     
  37 H37           -0.2068    -0.5522     2.2123 H       
  38 H38           -1.3160    -0.6453     0.8063 H       
  39 H39            3.4313    -0.2270    -0.3403 H       
  40 H40            1.0008     3.7328     1.3111 H       
  41 H41            5.9434     3.9451     0.1139 H       
  42 H42            4.8746     3.8841    -1.3269 H       
  43 H43            2.9988     7.2410     0.7443 H       
  44 H44            5.6542     4.0503     4.9833 H       
  45 H45            5.0601     6.4281     5.1934 H       
  46 H46            3.9653     7.6002     3.3380 H       
  47 H47           -1.0813     2.8930     2.3036 H       
  48 H48           -1.7925     1.3228     2.7470 H       
  49 H49            0.4133     0.5602     3.5845 H       
  50 H50            1.1246     2.1304     3.1411 H       
  51 H51           -0.4392     3.2755     4.6877 H       
  52 H52           -1.1505     1.7052     5.1311 H       
  53 H53            1.0554     0.9426     5.9686 H       
  54 H54            1.7666     2.5129     5.5252 H       
  55 H55            0.2028     3.6580     7.0718 H       
  56 H56           -0.5084     2.0877     7.5152 H       
  57 H57            1.1834     2.4486     7.9344 H       
  58 H58            6.5798     2.7644     1.2008 H       
  59 H59            6.1690    -1.2832     2.5029 H       
  60 H60            3.9871     1.8146     4.4752 H       
  61 H61            4.5830    -2.4395     3.2209 H       
  62 H62            5.9306    -2.2100     4.3609 H       
  63 H63            4.3419    -2.7472     4.9574 H       
  64 H64            8.0778    -1.4247     1.6632 H       
  65 H65            6.7294    -1.6545     0.5242 H       
  66 H66            8.3577    -1.2785    -0.0885 H       
@<TRIPOS>BOND
   1    1    2 1
   2    1    5 1
   3    1   22 1
   4    2    3 1
   5    2   37 1
   6    2   38 1
   7    3    4 1
   8    4    5 ar
   9    4    6 ar
  10    5    9 ar
  11    6    7 ar
  12    6   39 1
  13    7    8 ar
  14    7   10 1
  15    8    9 ar
  16    8   11 1
  17    9   40 1
  18   10   12 1
  19   11   12 1
  20   11   14 1
  21   11   15 1
  22   12   41 1
  23   12   42 1
  24   13   14 am
  25   13   20 1
  26   13   43 1
  27   14   21 2
  28   15   16 ar
  29   15   20 ar
  30   16   17 ar
  31   16   27 1
  32   17   18 ar
  33   17   44 1
  34   18   19 ar
  35   18   45 1
  36   19   20 ar
  37   19   46 1
  38   22   23 1
  39   22   47 1
  40   22   48 1
  41   23   24 1
  42   23   49 1
  43   23   50 1
  44   24   25 1
  45   24   51 1
  46   24   52 1
  47   25   26 1
  48   25   53 1
  49   25   54 1
  50   26   55 1
  51   26   56 1
  52   26   57 1
  53   27   28 ar
  54   27   32 ar
  55   28   29 ar
  56   28   58 1
  57   29   30 ar
  58   29   35 1
  59   30   31 ar
  60   30   59 1
  61   31   32 ar
  62   31   33 1
  63   32   60 1
  64   33   34 1
  65   34   61 1
  66   34   62 1
  67   34   63 1
  68   35   36 1
  69   36   64 1
  70   36   65 1
  71   36   66 1

#	End of record

