#	Name: ASD01881378
#	Creating user name:	WinNT
#	Creation time:	15. 06. 2019 19:42

#	Modifying user name:	WinNT
#	Modification time:	15. 06. 2019 19:42

#	Program:	/corina/corina34_cracker 3.40 0067  02.08.2006

@<TRIPOS>MOLECULE
ASD01881378
  58   61    0    0    0
SMALL
NO_CHARGES


@<TRIPOS>ATOM
   1 C1            -0.0161     1.3379     0.0094 C.2     
   2 C2             0.0021    -0.0041     0.0020 C.2     
   3 N3             1.2944    -0.4537    -0.0127 N.pl3   
   4 C4             2.1626     0.6136    -0.0153 C.ar    
   5 C5             1.3797     1.7842    -0.0015 C.ar    
   6 C6             1.6944    -1.8630    -0.0241 C.3     
   7 C7             1.1512    -2.5574     1.2263 C.3     
   8 C8             1.1284    -2.5437    -1.2720 C.3     
   9 C9             1.5461    -4.0155    -1.2839 C.3     
  10 C10            1.0029    -4.7099    -0.0334 C.3     
  11 C11            1.5689    -4.0292     1.2144 C.3     
  12 C12            3.5514     0.7145    -0.0285 C.ar    
  13 C13            4.1509     1.9402    -0.0280 C.ar    
  14 C14            3.3834     3.1109    -0.0138 C.ar    
  15 C15            1.9957     3.0341    -0.0007 C.ar    
  16 C16            4.0511     4.4330    -0.0125 C.2     
  17 C17            4.8094     4.8414    -1.1002 C.2     
  18 C18            3.9217     5.3024     1.0945 C.2     
  19 C19            4.5368     6.5037     1.0792 C.2     
  20 N20            5.2824     6.8944     0.0116 N.am    
  21 C21            5.4277     6.0999    -1.0648 C.2     
  22 C22            5.9349     8.2059     0.0311 C.3     
  23 C23            7.3325     8.0713     0.6390 C.3     
  24 C24            8.0139     9.4410     0.6594 C.3     
  25 C25            7.2515    10.3760     1.6004 C.3     
  26 Cl26           4.9908     3.8096    -2.4844 Cl      
  27 O27            6.1027     6.4737    -2.0112 O.2     
  28 O28            1.3930    -6.0846    -0.0445 O.3     
  29 C29            9.4546     9.2867     1.1507 C.3     
  30 H30           -0.8927     1.9688     0.0172 H       
  31 H31           -0.8739    -0.6358     0.0075 H       
  32 H32            2.7822    -1.9319    -0.0345 H       
  33 H33            1.5545    -2.0725     2.1153 H       
  34 H34            0.0635    -2.4885     1.2367 H       
  35 H35            0.0406    -2.4748    -1.2617 H       
  36 H36            1.5153    -2.0490    -2.1629 H       
  37 H37            1.1428    -4.5005    -2.1729 H       
  38 H38            2.6338    -4.0844    -1.2942 H       
  39 H39           -0.0849    -4.6410    -0.0231 H       
  40 H40            2.6567    -4.0982     1.2041 H       
  41 H41            1.1820    -4.5240     2.1053 H       
  42 H42            4.1559    -0.1803    -0.0387 H       
  43 H43            5.2287     2.0079    -0.0382 H       
  44 H44            1.4003     3.9351     0.0106 H       
  45 H45            3.3321     5.0066     1.9497 H       
  46 H46            4.4349     7.1645     1.9274 H       
  47 H47            6.0167     8.5862    -0.9871 H       
  48 H48            5.3429     8.8974     0.6307 H       
  49 H49            7.2507     7.6910     1.6573 H       
  50 H50            7.9245     7.3799     0.0394 H       
  51 H51            8.0161     9.8607    -0.3466 H       
  52 H52            7.7369    11.3518     1.6149 H       
  53 H53            6.2251    10.4860     1.2503 H       
  54 H54            7.2493     9.9563     2.6063 H       
  55 H55            1.0825    -6.5878     0.7206 H       
  56 H56            9.9977     8.6206     0.4803 H       
  57 H57            9.9400    10.2625     1.1652 H       
  58 H58            9.4524     8.8670     2.1567 H       
@<TRIPOS>BOND
   1    1    2 2
   2    1    5 1
   3    1   30 1
   4    2    3 1
   5    2   31 1
   6    3    4 1
   7    3    6 1
   8    4    5 ar
   9    4   12 ar
  10    5   15 ar
  11    6    7 1
  12    6    8 1
  13    6   32 1
  14    7   11 1
  15    7   33 1
  16    7   34 1
  17    8    9 1
  18    8   35 1
  19    8   36 1
  20    9   10 1
  21    9   37 1
  22    9   38 1
  23   10   11 1
  24   10   28 1
  25   10   39 1
  26   11   40 1
  27   11   41 1
  28   12   13 ar
  29   12   42 1
  30   13   14 ar
  31   13   43 1
  32   14   15 ar
  33   14   16 1
  34   15   44 1
  35   16   17 2
  36   16   18 1
  37   17   26 1
  38   17   21 1
  39   18   19 2
  40   18   45 1
  41   19   20 1
  42   19   46 1
  43   20   21 am
  44   20   22 1
  45   21   27 2
  46   22   23 1
  47   22   47 1
  48   22   48 1
  49   23   24 1
  50   23   49 1
  51   23   50 1
  52   24   25 1
  53   24   29 1
  54   24   51 1
  55   25   52 1
  56   25   53 1
  57   25   54 1
  58   28   55 1
  59   29   56 1
  60   29   57 1
  61   29   58 1

#	End of record

