#	Name: ASD04570016
#	Creating user name:	WinNT
#	Creation time:	15. 06. 2019 20:49

#	Modifying user name:	WinNT
#	Modification time:	15. 06. 2019 20:49

#	Program:	/corina/corina34_cracker 3.40 0067  02.08.2006

@<TRIPOS>MOLECULE
ASD04570016
 337  338    0    0    0
SMALL
NO_CHARGES


@<TRIPOS>ATOM
   1 C1            -0.8986     3.3994    -3.6458 C.3     
   2 C2            -1.1006     1.8832    -3.6802 C.3     
   3 C3            -0.1138     1.2595    -4.6692 C.3     
   4 C4            -0.3157    -0.2567    -4.7036 C.3     
   5 C5             0.6711    -0.8804    -5.6926 C.3     
   6 C6             0.4692    -2.3966    -5.7269 C.3     
   7 C7             1.4560    -3.0203    -6.7160 C.3     
   8 C8             1.2541    -4.5365    -6.7503 C.3     
   9 C9             2.2409    -5.1601    -7.7393 C.3     
  10 C10            2.0389    -6.6764    -7.7737 C.3     
  11 C11            3.0257    -7.3000    -8.7627 C.3     
  12 C12            2.8238    -8.8162    -8.7971 C.3     
  13 C13            3.8106    -9.4399    -9.7861 C.3     
  14 C14            3.6087   -10.9561    -9.8204 C.3     
  15 C15            4.5955   -11.5798   -10.8095 C.3     
  16 C16            4.3966   -13.0732   -10.8433 C.2     
  17 N17            5.1606   -13.8367   -11.6494 N.am    
  18 O18            3.5490   -13.5881   -10.1451 O.2     
  19 C19            4.9672   -15.2885   -11.6823 C.3     
  20 H20            5.8385   -13.4249   -12.2078 H       
  21 C21            5.4398   -15.8283   -13.0076 C.2     
  22 C22            5.7705   -15.9357   -10.5524 C.3     
  23 C23            5.2087   -15.4830    -9.2031 C.3     
  24 S24            6.1611   -16.2504    -7.8635 S.3     
  25 C25            5.3589   -15.6039    -6.3704 C.3     
  26 N26            5.3583   -17.1487   -13.2651 N.am    
  27 O27            5.8934   -15.0745   -13.8424 O.2     
  28 C28            5.8176   -17.6735   -14.5534 C.3     
  29 C29            5.6188   -19.1669   -14.5873 C.2     
  30 N30            5.9725   -19.8692   -15.6819 N.am    
  31 O31            5.1404   -19.7368   -13.6295 O.2     
  32 C32            5.7791   -21.3211   -15.7148 C.3     
  33 C33            4.3480   -21.6351   -16.1556 C.3     
  34 C34            3.3800   -21.1274   -15.1182 C.ar    
  35 C35            2.8805   -19.8415   -15.2112 C.ar    
  36 N36            6.7562   -23.2687   -16.8856 N.am    
  37 C37            6.7511   -21.9353   -16.6889 C.2     
  38 C38            2.9884   -21.9502   -14.0783 C.ar    
  39 C39            2.1008   -21.4873   -13.1264 C.ar    
  40 C40            1.6022   -20.1957   -13.2144 C.ar    
  41 C41            1.9929   -19.3737   -14.2615 C.ar    
  42 O42            7.5287   -21.2299   -17.2959 O.2     
  43 C43            7.7010   -23.8658   -17.8326 C.3     
  44 O44            0.7286   -19.7381   -12.2794 O.3     
  45 C45            9.0387   -24.1118   -17.1318 C.3     
  46 C46            7.1490   -25.1750   -18.3350 C.2     
  47 N47            7.8518   -25.9065   -19.2223 N.am    
  48 O48            6.0723   -25.5702   -17.9408 O.2     
  49 C49            9.6590   -22.7715   -16.7319 C.3     
  50 C50           10.9765   -23.0138   -16.0416 C.2     
  51 O51           11.3797   -24.1468   -15.8850 O.2     
  52 N52           11.7068   -21.9713   -15.5984 N.am    
  53 C53            7.3151   -27.1792   -19.7108 C.3     
  54 C54            6.3772   -26.9178   -20.8910 C.3     
  55 C55            8.4498   -28.0645   -20.1574 C.2     
  56 C56            5.1598   -26.1259   -20.4094 C.3     
  57 C57            4.2220   -25.8645   -21.5896 C.3     
  58 C58            3.0046   -25.0726   -21.1080 C.3     
  59 N59            2.1041   -24.8217   -22.2412 N.3     
  60 N60            8.3035   -29.4043   -20.1470 N.am    
  61 O61            9.4947   -27.5715   -20.5262 O.2     
  62 C62            7.1309   -30.1343   -19.6434 C.3     
  63 C63            7.4224   -31.6405   -19.8106 C.3     
  64 C64            8.9718   -31.6895   -19.8759 C.3     
  65 C65            9.2901   -30.3802   -20.6447 C.3     
  66 C66           10.6878   -29.9133   -20.3292 C.2     
  67 O67           10.8734   -29.1169   -19.4336 O.2     
  68 N68           11.7315   -30.3809   -21.0423 N.am    
  69 C69           13.0903   -29.9270   -20.7356 C.3     
  70 C70           14.0814   -30.9702   -21.1834 C.2     
  71 N71           15.4014   -30.7675   -21.0019 N.am    
  72 C72           12.6308   -26.2408   -21.7410 C.3     
  73 C73           12.4429   -27.5213   -20.9249 C.3     
  74 C74           13.3667   -28.6129   -21.4688 C.3     
  75 C75           12.7855   -27.2469   -19.4592 C.3     
  76 O76           13.6912   -31.9922   -21.7071 O.2     
  77 C77           16.3649   -31.7816   -21.4371 C.3     
  78 H78            0.1209     3.6231    -3.3318 H       
  79 H79           -1.0713     3.8115    -4.6400 H       
  80 H80           -1.6016     3.8437    -2.9412 H       
  81 H81           -0.9279     1.4710    -2.6860 H       
  82 H82           -2.1201     1.6594    -3.9943 H       
  83 H83           -0.2864     1.6716    -5.6634 H       
  84 H84            0.9058     1.4832    -4.3551 H       
  85 H85           -0.1431    -0.6689    -3.7094 H       
  86 H86           -1.3352    -0.4805    -5.0176 H       
  87 H87            0.4985    -0.4682    -6.6868 H       
  88 H88            1.6906    -0.6566    -5.3785 H       
  89 H89            0.6418    -2.8087    -4.7327 H       
  90 H90           -0.5503    -2.6203    -6.0410 H       
  91 H91            1.2834    -2.6081    -7.7102 H       
  92 H92            2.4755    -2.7965    -6.4019 H       
  93 H93            1.4267    -4.9486    -5.7561 H       
  94 H94            0.2346    -4.7602    -7.0644 H       
  95 H95            2.0682    -4.7480    -8.7335 H       
  96 H96            3.2604    -4.9364    -7.4253 H       
  97 H97            2.2116    -7.0885    -6.7795 H       
  98 H98            1.0194    -6.9001    -8.0877 H       
  99 H99            2.8531    -6.8879    -9.7569 H       
 100 H100           4.0453    -7.0763    -8.4486 H       
 101 H101           2.9964    -9.2284    -7.8029 H       
 102 H102           1.8043    -9.0400    -9.1111 H       
 103 H103           3.6380    -9.0277   -10.7803 H       
 104 H104           4.8301    -9.2161    -9.4720 H       
 105 H105           3.7813   -11.3683    -8.8262 H       
 106 H106           2.5892   -11.1799   -10.1345 H       
 107 H107           4.4229   -11.1676   -11.8037 H       
 108 H108           5.6150   -11.3560   -10.4954 H       
 109 H109           3.9093   -15.5172   -11.5532 H       
 110 H110           5.6984   -17.0205   -10.6304 H       
 111 H111           6.8151   -15.6345   -10.6305 H       
 112 H112           5.2809   -14.3982    -9.1251 H       
 113 H113           4.1641   -15.7842    -9.1250 H       
 114 H114           5.4273   -14.5161    -6.3632 H       
 115 H115           4.3105   -15.9021    -6.3632 H       
 116 H116           5.8569   -16.0052    -5.4877 H       
 117 H117           4.9955   -17.7516   -12.5974 H       
 118 H118           5.2454   -17.2124   -15.3584 H       
 119 H119           6.8755   -17.4448   -14.6825 H       
 120 H120           6.3550   -19.4134   -16.4479 H       
 121 H121           5.9517   -21.7332   -14.7206 H       
 122 H122           4.1466   -21.1481   -17.1097 H       
 123 H123           4.2301   -22.7131   -16.2659 H       
 124 H124           3.1847   -19.2021   -16.0267 H       
 125 H125           6.1342   -23.8329   -16.4001 H       
 126 H126           3.3766   -22.9557   -14.0104 H       
 127 H127           1.7950   -22.1305   -12.3145 H       
 128 H128           1.6062   -18.3678   -14.3323 H       
 129 H129           7.8504   -23.1880   -18.6730 H       
 130 H130           1.1513   -19.3117   -11.5214 H       
 131 H131           8.8758   -24.7172   -16.2402 H       
 132 H132           9.7126   -24.6364   -17.8091 H       
 133 H133           8.7129   -25.5904   -19.5376 H       
 134 H134           9.8218   -22.1661   -17.6235 H       
 135 H135           8.9850   -22.2469   -16.0546 H       
 136 H136          11.3843   -21.0651   -15.7237 H       
 137 H137          12.5548   -22.1273   -15.1541 H       
 138 H138           6.7632   -27.6719   -18.9103 H       
 139 H139           6.9044   -26.3452   -21.6541 H       
 140 H140           6.0491   -27.8682   -21.3118 H       
 141 H141           4.6327   -26.6984   -19.6462 H       
 142 H142           5.4879   -25.1754   -19.9886 H       
 143 H143           4.7491   -25.2920   -22.3528 H       
 144 H144           3.8939   -26.8150   -22.0104 H       
 145 H145           2.4774   -25.6452   -20.3449 H       
 146 H146           3.3327   -24.1222   -20.6872 H       
 147 H147           1.8370   -25.6855   -22.6890 H       
 148 H148           1.2917   -24.2997   -21.9487 H       
 149 H149           6.9738   -29.9018   -18.5902 H       
 150 H150           6.2480   -29.8612   -20.2212 H       
 151 H151           7.0547   -32.2021   -18.9518 H       
 152 H152           6.9853   -32.0176   -20.7352 H       
 153 H153           9.4057   -31.6748   -18.8761 H       
 154 H154           9.3119   -32.5612   -20.4349 H       
 155 H155           9.1732   -30.5323   -21.7177 H       
 156 H156          11.5830   -31.0179   -21.7586 H       
 157 H157          13.1874   -29.7710   -19.6612 H       
 158 H158          15.7135   -29.9501   -20.5830 H       
 159 H159          12.3867   -26.4364   -22.7851 H       
 160 H160          11.9726   -25.4632   -21.3534 H       
 161 H161          13.6668   -25.9108   -21.6657 H       
 162 H162          11.4068   -27.8514   -21.0002 H       
 163 H163          14.4052   -28.3212   -21.3126 H       
 164 H164          13.1832   -28.7462   -22.5350 H       
 165 H165          12.1274   -26.4692   -19.0717 H       
 166 H166          12.6516   -28.1591   -18.8778 H       
 167 H167          13.8216   -26.9168   -19.3840 H       
 168 H168          16.1680   -32.7178   -20.9148 H       
 169 H169          16.2678   -31.9376   -22.5115 H       
 170 H170          17.3758   -31.4439   -21.2090 H       
 171 C171          50.9165    18.1766    20.3109 C.3     
 172 C172          50.9006    16.6469    20.3398 C.3     
 173 C173          49.4760    16.1606    20.4110 C.2     
 174 N174          48.6063    16.4768    19.4311 N.am    
 175 C175          47.2214    16.0041    19.5002 C.3     
 176 C176          46.6448    15.9330    18.1097 C.2     
 177 N177          45.3746    15.5212    17.9271 N.am    
 178 O178          47.3239    16.2464    17.1549 O.2     
 179 C179          44.8141    15.4522    16.5753 C.3     
 180 C180          43.3139    15.5763    16.6466 C.2     
 181 C181          45.1852    14.1121    15.9371 C.3     
 182 C182          46.7021    14.0387    15.7506 C.3     
 183 S183          47.1421    12.4498    14.9940 S.3     
 184 C184          48.9481    12.5498    14.8560 C.3     
 185 N185          42.5802    15.5394    15.5166 N.am    
 186 O186          42.7668    15.7093    17.7207 O.2     
 187 C187          41.1219    15.6601    15.5859 C.3     
 188 C188          40.5055    15.0030    14.3778 C.2     
 189 N189          39.2115    14.6271    14.4018 N.am    
 190 O190          41.1739    14.8126    13.3839 O.2     
 191 C191          40.7333    17.1396    15.6156 C.3     
 192 O192          41.0838    17.7492    14.3716 O.3     
 193 C193          39.2250    17.2665    15.8386 C.3     
 194 C194          38.5893    14.0659    13.2001 C.3     
 195 C195          38.3423    12.5699    13.4049 C.3     
 196 C196          39.6605    11.8643    13.5931 C.2     
 197 O197          39.6929    10.5304    13.7391 O.3     
 198 N198          36.5240    14.4072    11.8823 N.am    
 199 C199          37.2772    14.7610    12.9425 C.2     
 200 O200          36.8991    15.6387    13.6892 O.2     
 201 O201          40.6883    12.4993    13.6127 O.2     
 202 C202          35.2485    15.0829    11.6318 C.3     
 203 C203          35.4988    16.3676    10.8395 C.3     
 204 C204          34.3447    14.1728    10.8406 C.2     
 205 C205          36.3127    17.3426    11.6927 C.3     
 206 C206          36.5631    18.6273    10.9004 C.3     
 207 C207          37.3770    19.6023    11.7536 C.3     
 208 N208          37.6174    20.8357    10.9929 N.3     
 209 O209          34.7283    13.0685    10.5177 O.2     
 210 N210          33.1102    14.5861    10.4918 N.am    
 211 C211          32.2317    13.7014     9.7226 C.3     
 212 C212          31.4888    12.7646    10.6773 C.3     
 213 C213          32.4775    11.8524    11.3566 C.ar    
 214 C214          33.0595    12.2329    12.5516 C.ar    
 215 N215          30.3190    13.9245     8.1701 N.am    
 216 C216          31.2343    14.5287     8.9534 C.2     
 217 O217          31.2553    15.7383     9.0392 O.2     
 218 C218          29.3494    14.7288     7.4223 C.3     
 219 C219          32.7967    10.6338    10.7866 C.ar    
 220 C220          33.7024     9.7956    11.4076 C.ar    
 221 C221          34.2918    10.1774    12.6040 C.ar    
 222 C222          33.9662    11.3985    13.1763 C.ar    
 223 O223          35.1828     9.3544    13.2170 O.3     
 224 C224          29.9716    15.1768     6.0982 C.3     
 225 C225          28.1193    13.9035     7.1454 C.2     
 226 C226          31.1462    16.1163     6.3788 C.3     
 227 C227          31.7684    16.5643     5.0547 C.3     
 228 N228          32.8931    17.4639     5.3233 N.pl3   
 229 C229          33.6112    17.9973     4.2794 C.2     
 230 N230          33.2914    17.7026     3.0506 N.2     
 231 N231          34.6667    18.8414     4.5314 N.pl3   
 232 O232          28.0585    12.7564     7.5344 O.2     
 233 N233          27.0867    14.4401     6.4655 N.am    
 234 C234          25.8909    13.6378     6.1963 C.3     
 235 C235          24.6882    14.5637     6.0039 C.3     
 236 C236          24.3959    15.2990     7.3134 C.3     
 237 C237          23.2746    16.3153     7.0884 C.3     
 238 N238          25.1294    12.0045     4.5019 N.am    
 239 C239          26.1031    12.8236     4.9461 C.2     
 240 O240          27.1502    12.9055     4.3396 O.2     
 241 C241          23.9636    14.2901     8.3793 C.3     
 242 C242          46.3934    16.9730    20.3467 C.3     
 243 O243          46.3277    18.2413    19.6917 O.3     
 244 O244          49.1121    15.4848    21.3499 O.2     
 245 C245          51.6702    16.1520    21.5661 C.3     
 246 C246          53.1445    16.5390    21.4333 C.3     
 247 C247          53.9141    16.0441    22.6595 C.3     
 248 N248          55.3258    16.4147    22.5323 N.pl3   
 249 C249          56.2178    16.0736    23.5213 C.2     
 250 N250          55.8075    15.4205    24.5721 N.2     
 251 N251          57.5426    16.4213    23.4020 N.pl3   
 252 H252          51.9469    18.5283    20.2594 H       
 253 H253          50.3682    18.5291    19.4373 H       
 254 H254          50.4457    18.5620    21.2153 H       
 255 H255          51.3714    16.2615    19.4355 H       
 256 H256          48.8973    17.0174    18.6801 H       
 257 H257          47.1978    15.0135    19.9543 H       
 258 H258          44.8315    15.2706    18.6907 H       
 259 H259          45.2178    16.2658    15.9726 H       
 260 H260          44.8591    13.2984    16.5850 H       
 261 H261          44.6952    14.0232    14.9675 H       
 262 H262          47.0283    14.8523    15.1028 H       
 263 H263          47.1921    14.1275    16.7202 H       
 264 H264          49.3294    11.6330    14.4065 H       
 265 H265          49.2181    13.4007    14.2305 H       
 266 H266          49.3819    12.6759    15.8480 H       
 267 H267          43.0178    15.4330    14.6575 H       
 268 H268          40.7594    15.1710    16.4900 H       
 269 H269          38.6921    14.7281    15.2148 H       
 270 H270          41.2638    17.6383    16.4268 H       
 271 H271          40.8657    18.6899    14.3193 H       
 272 H272          38.9564    16.7935    16.7833 H       
 273 H273          38.9496    18.3206    15.8688 H       
 274 H274          38.6945    16.7755    15.0228 H       
 275 H275          39.2513    14.2114    12.3465 H       
 276 H276          37.7214    12.4217    14.2884 H       
 277 H277          37.8338    12.1627    12.5310 H       
 278 H278          40.5618    10.1226    13.8571 H       
 279 H279          36.8264    13.7052    11.2851 H       
 280 H280          34.7747    15.3287    12.5822 H       
 281 H281          36.0516    16.1318     9.9302 H       
 282 H282          34.5446    16.8241    10.5765 H       
 283 H283          35.7599    17.5785    12.6021 H       
 284 H284          37.2669    16.8861    11.9557 H       
 285 H285          37.1159    18.3914     9.9911 H       
 286 H286          35.6089    19.0838    10.6374 H       
 287 H287          36.8242    19.8381    12.6629 H       
 288 H288          38.3312    19.1457    12.0166 H       
 289 H289          36.7486    21.2439    10.6818 H       
 290 H290          38.1535    21.4964    11.5353 H       
 291 H291          32.8034    15.4693    10.7501 H       
 292 H292          32.8286    13.1121     9.0266 H       
 293 H293          30.9626    13.3538    11.4284 H       
 294 H294          30.7706    12.1677    10.1151 H       
 295 H295          32.8054    13.1835    12.9969 H       
 296 H296          30.3022    12.9571     8.1014 H       
 297 H297          29.0745    15.6051     8.0094 H       
 298 H298          32.3374    10.3368     9.8554 H       
 299 H299          33.9512     8.8437    10.9621 H       
 300 H300          34.4236    11.6981    14.1077 H       
 301 H301          36.1004     9.4978    12.9477 H       
 302 H302          30.3272    14.3043     5.5502 H       
 303 H303          29.2226    15.6993     5.5031 H       
 304 H304          30.7907    16.9889     6.9268 H       
 305 H305          31.8952    15.5939     6.9738 H       
 306 H306          32.1239    15.6917     4.5067 H       
 307 H307          31.0194    17.0867     4.4596 H       
 308 H308          33.1311    17.6831     6.2378 H       
 309 H309          33.7981    18.0789     2.3140 H       
 310 H310          34.9046    19.0607     5.4459 H       
 311 H311          35.1733    19.2178     3.7948 H       
 312 H312          27.1354    15.3576     6.1543 H       
 313 H313          25.7044    12.9701     7.0374 H       
 314 H314          24.9098    15.2894     5.2213 H       
 315 H315          23.8178    13.9738     5.7164 H       
 316 H316          25.2947    15.8176     7.6472 H       
 317 H317          22.3758    15.7967     6.7545 H       
 318 H318          23.0664    16.8391     8.0213 H       
 319 H319          23.5826    17.0340     6.3290 H       
 320 H320          24.2919    11.9390     4.9870 H       
 321 H321          25.2660    11.4804     3.6972 H       
 322 H322          24.7625    13.5661     8.5396 H       
 323 H323          23.7554    14.8140     9.3122 H       
 324 H324          23.0649    13.7715     8.0454 H       
 325 H325          45.3860    16.5762    20.4722 H       
 326 H326          46.8611    17.0926    21.3240 H       
 327 H327          45.8169    18.9065    20.1730 H       
 328 H328          51.2544    16.6081    22.4645 H       
 329 H329          51.5841    15.0677    21.6358 H       
 330 H330          53.5604    16.0830    20.5348 H       
 331 H331          53.2306    17.6234    21.3635 H       
 332 H332          53.4983    16.5002    23.5579 H       
 333 H333          53.8280    14.9598    22.7292 H       
 334 H334          55.6311    16.9007    21.7504 H       
 335 H335          56.4369    15.1798    25.2699 H       
 336 H336          57.8479    16.9073    22.6201 H       
 337 H337          58.1719    16.1807    24.0998 H       
@<TRIPOS>BOND
   1    1    2 1
   2    1   78 1
   3    1   79 1
   4    1   80 1
   5    2    3 1
   6    2   81 1
   7    2   82 1
   8    3    4 1
   9    3   83 1
  10    3   84 1
  11    4    5 1
  12    4   85 1
  13    4   86 1
  14    5    6 1
  15    5   87 1
  16    5   88 1
  17    6    7 1
  18    6   89 1
  19    6   90 1
  20    7    8 1
  21    7   91 1
  22    7   92 1
  23    8    9 1
  24    8   93 1
  25    8   94 1
  26    9   10 1
  27    9   95 1
  28    9   96 1
  29   10   11 1
  30   10   97 1
  31   10   98 1
  32   11   12 1
  33   11   99 1
  34   11  100 1
  35   12   13 1
  36   12  101 1
  37   12  102 1
  38   13   14 1
  39   13  103 1
  40   13  104 1
  41   14   15 1
  42   14  105 1
  43   14  106 1
  44   15   16 1
  45   15  107 1
  46   15  108 1
  47   16   17 am
  48   16   18 2
  49   17   19 1
  50   17   20 1
  51   19   21 1
  52   19   22 1
  53   19  109 1
  54   21   26 am
  55   21   27 2
  56   22   23 1
  57   22  110 1
  58   22  111 1
  59   23   24 1
  60   23  112 1
  61   23  113 1
  62   24   25 1
  63   25  114 1
  64   25  115 1
  65   25  116 1
  66   26   28 1
  67   26  117 1
  68   28   29 1
  69   28  118 1
  70   28  119 1
  71   29   30 am
  72   29   31 2
  73   30   32 1
  74   30  120 1
  75   32   33 1
  76   32   37 1
  77   32  121 1
  78   33   34 1
  79   33  122 1
  80   33  123 1
  81   34   35 ar
  82   34   38 ar
  83   35   41 ar
  84   35  124 1
  85   36   37 am
  86   36   43 1
  87   36  125 1
  88   37   42 2
  89   38   39 ar
  90   38  126 1
  91   39   40 ar
  92   39  127 1
  93   40   41 ar
  94   40   44 1
  95   41  128 1
  96   43   45 1
  97   43   46 1
  98   43  129 1
  99   44  130 1
 100   45   49 1
 101   45  131 1
 102   45  132 1
 103   46   47 am
 104   46   48 2
 105   47   53 1
 106   47  133 1
 107   49   50 1
 108   49  134 1
 109   49  135 1
 110   50   51 2
 111   50   52 am
 112   52  136 1
 113   52  137 1
 114   53   54 1
 115   53   55 1
 116   53  138 1
 117   54   56 1
 118   54  139 1
 119   54  140 1
 120   55   60 am
 121   55   61 2
 122   56   57 1
 123   56  141 1
 124   56  142 1
 125   57   58 1
 126   57  143 1
 127   57  144 1
 128   58   59 1
 129   58  145 1
 130   58  146 1
 131   59  147 1
 132   59  148 1
 133   60   62 1
 134   60   65 1
 135   62   63 1
 136   62  149 1
 137   62  150 1
 138   63   64 1
 139   63  151 1
 140   63  152 1
 141   64   65 1
 142   64  153 1
 143   64  154 1
 144   65   66 1
 145   65  155 1
 146   66   67 2
 147   66   68 am
 148   68   69 1
 149   68  156 1
 150   69   70 1
 151   69   74 1
 152   69  157 1
 153   70   71 am
 154   70   76 2
 155   71   77 1
 156   71  158 1
 157   72   73 1
 158   72  159 1
 159   72  160 1
 160   72  161 1
 161   73   74 1
 162   73   75 1
 163   73  162 1
 164   74  163 1
 165   74  164 1
 166   75  165 1
 167   75  166 1
 168   75  167 1
 169   77  168 1
 170   77  169 1
 171   77  170 1
 172  171  172 1
 173  171  252 1
 174  171  253 1
 175  171  254 1
 176  172  173 1
 177  172  245 1
 178  172  255 1
 179  173  174 am
 180  173  244 2
 181  174  175 1
 182  174  256 1
 183  175  176 1
 184  175  242 1
 185  175  257 1
 186  176  177 am
 187  176  178 2
 188  177  179 1
 189  177  258 1
 190  179  180 1
 191  179  181 1
 192  179  259 1
 193  180  185 am
 194  180  186 2
 195  181  182 1
 196  181  260 1
 197  181  261 1
 198  182  183 1
 199  182  262 1
 200  182  263 1
 201  183  184 1
 202  184  264 1
 203  184  265 1
 204  184  266 1
 205  185  187 1
 206  185  267 1
 207  187  188 1
 208  187  191 1
 209  187  268 1
 210  188  189 am
 211  188  190 2
 212  189  194 1
 213  189  269 1
 214  191  192 1
 215  191  193 1
 216  191  270 1
 217  192  271 1
 218  193  272 1
 219  193  273 1
 220  193  274 1
 221  194  195 1
 222  194  199 1
 223  194  275 1
 224  195  196 1
 225  195  276 1
 226  195  277 1
 227  196  201 2
 228  196  197 1
 229  197  278 1
 230  198  199 am
 231  198  202 1
 232  198  279 1
 233  199  200 2
 234  202  203 1
 235  202  204 1
 236  202  280 1
 237  203  205 1
 238  203  281 1
 239  203  282 1
 240  204  209 2
 241  204  210 am
 242  205  206 1
 243  205  283 1
 244  205  284 1
 245  206  207 1
 246  206  285 1
 247  206  286 1
 248  207  208 1
 249  207  287 1
 250  207  288 1
 251  208  289 1
 252  208  290 1
 253  210  211 1
 254  210  291 1
 255  211  212 1
 256  211  216 1
 257  211  292 1
 258  212  213 1
 259  212  293 1
 260  212  294 1
 261  213  214 ar
 262  213  219 ar
 263  214  222 ar
 264  214  295 1
 265  215  216 am
 266  215  218 1
 267  215  296 1
 268  216  217 2
 269  218  224 1
 270  218  225 1
 271  218  297 1
 272  219  220 ar
 273  219  298 1
 274  220  221 ar
 275  220  299 1
 276  221  222 ar
 277  221  223 1
 278  222  300 1
 279  223  301 1
 280  224  226 1
 281  224  302 1
 282  224  303 1
 283  225  232 2
 284  225  233 am
 285  226  227 1
 286  226  304 1
 287  226  305 1
 288  227  228 1
 289  227  306 1
 290  227  307 1
 291  228  229 1
 292  228  308 1
 293  229  230 2
 294  229  231 1
 295  230  309 1
 296  231  310 1
 297  231  311 1
 298  233  234 1
 299  233  312 1
 300  234  235 1
 301  234  239 1
 302  234  313 1
 303  235  236 1
 304  235  314 1
 305  235  315 1
 306  236  237 1
 307  236  241 1
 308  236  316 1
 309  237  317 1
 310  237  318 1
 311  237  319 1
 312  238  239 am
 313  238  320 1
 314  238  321 1
 315  239  240 2
 316  241  322 1
 317  241  323 1
 318  241  324 1
 319  242  243 1
 320  242  325 1
 321  242  326 1
 322  243  327 1
 323  245  246 1
 324  245  328 1
 325  245  329 1
 326  246  247 1
 327  246  330 1
 328  246  331 1
 329  247  248 1
 330  247  332 1
 331  247  333 1
 332  248  249 1
 333  248  334 1
 334  249  250 2
 335  249  251 1
 336  250  335 1
 337  251  336 1
 338  251  337 1

#	End of record

