#	Name: ASD01814390
#	Creating user name:	WinNT
#	Creation time:	15. 06. 2019 19:32

#	Modifying user name:	WinNT
#	Modification time:	15. 06. 2019 19:32

#	Program:	/corina/corina34_cracker 3.40 0067  02.08.2006

@<TRIPOS>MOLECULE
ASD01814390
  50   55    0    0    0
SMALL
NO_CHARGES


@<TRIPOS>ATOM
   1 C1            -0.0167     1.3819     0.0096 C.ar    
   2 C2             0.0021    -0.0041     0.0020 C.ar    
   3 C3             1.1970    -0.6936    -0.0127 C.ar    
   4 C4             2.3990     0.0034    -0.0204 C.ar    
   5 C5             2.3751     1.4118    -0.0131 C.ar    
   6 C6             1.1661     2.0940     0.0022 C.ar    
   7 N7             3.6102    -0.6577    -0.0347 N.pl3   
   8 N8             4.7455    -0.0611    -0.0415 N.2     
   9 C9             4.8827     1.2395    -0.0362 C.2     
  10 C10            3.6768     2.1037    -0.0219 C.2     
  11 C11            6.0121     2.1720    -0.0420 C.2     
  12 N12            5.4770     3.4117    -0.0316 N.am    
  13 N13            4.0818     3.3390    -0.0198 N.2     
  14 C14            3.5985    -2.1227    -0.0419 C.3     
  15 C15            3.5817    -2.6178    -1.4652 C.ar    
  16 C16            4.7723    -2.8540    -2.1276 C.ar    
  17 C17            4.7601    -3.3074    -3.4322 C.ar    
  18 C18            3.5509    -3.5265    -4.0783 C.ar    
  19 C19            2.3572    -3.2889    -3.4103 C.ar    
  20 C20            2.3758    -2.8405    -2.1041 C.ar    
  21 N21            3.5353    -3.9863    -5.4025 N.pl3   
  22 C22            2.4332    -4.2390    -6.1442 C.2     
  23 C23            2.8447    -4.6635    -7.3615 C.2     
  24 C24            4.2439    -4.6708    -7.3649 C.2     
  25 N25            4.6586    -4.2594    -6.1937 N.2     
  26 O26            7.1978     1.8862    -0.0540 O.2     
  27 C27            6.2159     4.6019    -0.0329 C.ar    
  28 C28            6.5722     5.1988    -1.2352 C.ar    
  29 C29            7.3015     6.3733    -1.2329 C.ar    
  30 C30            7.6765     6.9543    -0.0358 C.ar    
  31 C31            7.3243     6.3634     1.1641 C.ar    
  32 C32            6.5897     5.1918     1.1700 C.ar    
  33 F33            6.2454     4.6150     2.3422 F       
  34 Br34           6.0609     4.4055    -2.8738 Br      
  35 H35           -0.9605     1.9069     0.0170 H       
  36 H36           -0.9294    -0.5505     0.0080 H       
  37 H37            1.1981    -1.7735    -0.0178 H       
  38 H38            1.1510     3.1739     0.0074 H       
  39 H39            4.4902    -2.4956     0.4620 H       
  40 H40            2.7104    -2.4815     0.4781 H       
  41 H41            5.7126    -2.6834    -1.6246 H       
  42 H42            5.6903    -3.4911    -3.9494 H       
  43 H43            1.4150    -3.4581    -3.9104 H       
  44 H44            1.4475    -2.6555    -1.5840 H       
  45 H45            1.4087    -4.1235    -5.8227 H       
  46 H46            2.2059    -4.9467    -8.1849 H       
  47 H47            4.8733    -4.9614    -8.1930 H       
  48 H48            7.5790     6.8375    -2.1677 H       
  49 H49            8.2461     7.8719    -0.0375 H       
  50 H50            7.6196     6.8197     2.0974 H       
@<TRIPOS>BOND
   1    1    2 ar
   2    1    6 ar
   3    1   35 1
   4    2    3 ar
   5    2   36 1
   6    3    4 ar
   7    3   37 1
   8    4    5 ar
   9    4    7 1
  10    5    6 ar
  11    5   10 1
  12    6   38 1
  13    7    8 1
  14    7   14 1
  15    8    9 2
  16    9   10 1
  17    9   11 1
  18   10   13 2
  19   11   12 am
  20   11   26 2
  21   12   13 1
  22   12   27 1
  23   14   15 1
  24   14   39 1
  25   14   40 1
  26   15   16 ar
  27   15   20 ar
  28   16   17 ar
  29   16   41 1
  30   17   18 ar
  31   17   42 1
  32   18   19 ar
  33   18   21 1
  34   19   20 ar
  35   19   43 1
  36   20   44 1
  37   21   22 1
  38   21   25 1
  39   22   23 2
  40   22   45 1
  41   23   24 1
  42   23   46 1
  43   24   25 2
  44   24   47 1
  45   27   28 ar
  46   27   32 ar
  47   28   29 ar
  48   28   34 1
  49   29   30 ar
  50   29   48 1
  51   30   31 ar
  52   30   49 1
  53   31   32 ar
  54   31   50 1
  55   32   33 1

#	End of record

