#	Name: ASD01230489
#	Creating user name:	WinNT
#	Creation time:	15. 06. 2019 19:14

#	Modifying user name:	WinNT
#	Modification time:	15. 06. 2019 19:14

#	Program:	/corina/corina34_cracker 3.40 0067  02.08.2006

@<TRIPOS>MOLECULE
ASD01230489
  45   48    0    0    0
SMALL
NO_CHARGES


@<TRIPOS>ATOM
   1 S1             0.3739     1.5538     0.3892 S.o2    
   2 N2             0.3510    -0.0941     0.2445 N.am    
   3 C3             1.2694    -0.7526    -0.4251 C.2     
   4 N4             2.3336    -0.1899    -1.0717 N.pl3   
   5 C5             2.5605     1.2548    -1.1695 C.3     
   6 C6             2.1296     1.9554     0.1225 C.3     
   7 C7             1.1079    -2.1745    -0.4586 C.2     
   8 C8             2.0508    -2.9573    -1.1037 C.2     
   9 C9             3.1538    -2.3291    -1.7142 C.2     
  10 C10            3.2670    -0.9910    -1.6846 C.2     
  11 C11           -0.0615    -2.8055     0.1938 C.ar    
  12 C12            0.1216    -3.6652     1.2776 C.ar    
  13 C13           -0.9702    -4.2507     1.8830 C.ar    
  14 C14           -2.2505    -3.9862     1.4153 C.ar    
  15 C15           -2.4366    -3.1313     0.3371 C.ar    
  16 C16           -1.3501    -2.5375    -0.2698 C.ar    
  17 O17           -3.3241    -4.5658     2.0139 O.3     
  18 C18           -4.0170    -5.5015     1.3135 C.ar    
  19 C19           -3.5661    -5.9116     0.0669 C.ar    
  20 C20           -4.2724    -6.8630    -0.6431 C.ar    
  21 C21           -5.4281    -7.4063    -0.1128 C.ar    
  22 C22           -5.8799    -6.9990     1.1289 C.ar    
  23 C23           -5.1738    -6.0528     1.8460 C.ar    
  24 O24            1.9148    -4.3048    -1.1464 O.3     
  25 C25            1.7393    -4.8986    -2.4343 C.3     
  26 O26           -0.4200     2.0188    -0.6937 O.2     
  27 O27           -0.0004     1.7995     1.7378 O.2     
  28 H28            3.6202     1.4414    -1.3436 H       
  29 H29            1.9839     1.6536    -2.0042 H       
  30 H30            2.2525     3.0335     0.0192 H       
  31 H31            2.7253     1.5911     0.9595 H       
  32 H32            3.9089    -2.9237    -2.2068 H       
  33 H33            4.1207    -0.5291    -2.1582 H       
  34 H34            1.1172    -3.8720     1.6415 H       
  35 H35           -0.8293    -4.9162     2.7219 H       
  36 H36           -3.4340    -2.9279    -0.0240 H       
  37 H37           -1.4960    -1.8692    -1.1056 H       
  38 H38           -2.6639    -5.4871    -0.3480 H       
  39 H39           -3.9219    -7.1825    -1.6133 H       
  40 H40           -5.9791    -8.1497    -0.6697 H       
  41 H41           -6.7831    -7.4247     1.5407 H       
  42 H42           -5.5245    -5.7386     2.8180 H       
  43 H43            0.8901    -4.4344    -2.9358 H       
  44 H44            2.6398    -4.7476    -3.0297 H       
  45 H45            1.5543    -5.9666    -2.3198 H       
@<TRIPOS>BOND
   1    1    2 am
   2    1    6 1
   3    1   26 2
   4    1   27 2
   5    2    3 2
   6    3    4 1
   7    3    7 1
   8    4    5 1
   9    4   10 1
  10    5    6 1
  11    5   28 1
  12    5   29 1
  13    6   30 1
  14    6   31 1
  15    7    8 2
  16    7   11 1
  17    8    9 1
  18    8   24 1
  19    9   10 2
  20    9   32 1
  21   10   33 1
  22   11   12 ar
  23   11   16 ar
  24   12   13 ar
  25   12   34 1
  26   13   14 ar
  27   13   35 1
  28   14   15 ar
  29   14   17 1
  30   15   16 ar
  31   15   36 1
  32   16   37 1
  33   17   18 1
  34   18   19 ar
  35   18   23 ar
  36   19   20 ar
  37   19   38 1
  38   20   21 ar
  39   20   39 1
  40   21   22 ar
  41   21   40 1
  42   22   23 ar
  43   22   41 1
  44   23   42 1
  45   24   25 1
  46   25   43 1
  47   25   44 1
  48   25   45 1

#	End of record

