#	Name: ASD01140483
#	Creating user name:	WinNT
#	Creation time:	15. 06. 2019 19:00

#	Modifying user name:	WinNT
#	Modification time:	15. 06. 2019 19:00

#	Program:	/corina/corina34_cracker 3.40 0067  02.08.2006

@<TRIPOS>MOLECULE
ASD01140483
  37   40    0    0    0
SMALL
NO_CHARGES


@<TRIPOS>ATOM
   1 N1            -0.0169     1.3918     0.0097 N.2     
   2 N2             0.0021    -0.0041     0.0020 N.pl3   
   3 C3             2.4018     0.0540    -0.0206 C.2     
   4 C4             2.3505     1.4123    -0.0133 C.2     
   5 C5             1.1059     2.0732     0.0026 C.2     
   6 C6            -0.9683    -0.9637     0.0061 C.2     
   7 N7            -0.3591    -2.1372    -0.0060 N.2     
   8 N8             0.9172    -1.9721    -0.0173 N.2     
   9 C9             1.1994    -0.6780    -0.0130 C.2     
  10 C10           -2.4219    -0.7350     0.0217 C.2     
  11 S11           -3.2063     0.7910     0.4090 S.3     
  12 C12           -4.7931     0.0739     0.1636 C.2     
  13 C13           -4.6612    -1.2108    -0.1796 C.2     
  14 C14           -3.3610    -1.6629    -0.2650 C.2     
  15 S15            1.0555     3.8345     0.0126 S.3     
  16 C16           -0.7229     4.1917     0.0315 C.3     
  17 C17           -0.9355     5.6836     0.0415 C.ar    
  18 C18           -1.2110     7.7308     1.2522 C.ar    
  19 C19           -1.0159     6.3621     1.2430 C.ar    
  20 C20           -1.0445     6.3743    -1.1511 C.ar    
  21 C21           -1.2395     7.7426    -1.1419 C.ar    
  22 C22           -1.3261     8.4205     0.0600 C.ar    
  23 C23           -1.2992     8.4705     2.5622 C.3     
  24 F24           -0.0208     8.8856     2.9503 F       
  25 F25           -2.1268     9.5884     2.4117 F       
  26 F26           -1.8318     7.6243     3.5406 F       
  27 H27            3.3531    -0.4572    -0.0331 H       
  28 H28            3.2654     1.9862    -0.0186 H       
  29 H29           -5.7332     0.5937     0.2741 H       
  30 H30           -5.5105    -1.8474    -0.3793 H       
  31 H31           -3.1134    -2.6784    -0.5368 H       
  32 H32           -1.1888     3.7642    -0.8564 H       
  33 H33           -1.1718     3.7547     0.9234 H       
  34 H34           -0.9268     5.8230     2.1746 H       
  35 H35           -0.9768     5.8448    -2.0900 H       
  36 H36           -1.3239     8.2823    -2.0736 H       
  37 H37           -1.4785     9.4896     0.0672 H       
@<TRIPOS>BOND
   1    1    2 1
   2    1    5 2
   3    2    6 1
   4    2    9 1
   5    3    4 2
   6    3    9 1
   7    3   27 1
   8    4    5 1
   9    4   28 1
  10    5   15 1
  11    6    7 2
  12    6   10 1
  13    7    8 1
  14    8    9 2
  15   10   11 1
  16   10   14 2
  17   11   12 1
  18   12   13 2
  19   12   29 1
  20   13   14 1
  21   13   30 1
  22   14   31 1
  23   15   16 1
  24   16   17 1
  25   16   32 1
  26   16   33 1
  27   17   20 ar
  28   17   19 ar
  29   18   19 ar
  30   18   22 ar
  31   18   23 1
  32   19   34 1
  33   20   21 ar
  34   20   35 1
  35   21   22 ar
  36   21   36 1
  37   22   37 1
  38   23   24 1
  39   23   25 1
  40   23   26 1

#	End of record

