#	Name: ASD02198141
#	Creating user name:	WinNT
#	Creation time:	15. 06. 2019 20:18

#	Modifying user name:	WinNT
#	Modification time:	15. 06. 2019 20:18

#	Program:	/corina/corina34_cracker 3.40 0067  02.08.2006

@<TRIPOS>MOLECULE
ASD02198141
  52   53    0    0    0
SMALL
NO_CHARGES


@<TRIPOS>ATOM
   1 C1            -0.0166     1.3753     0.0096 C.2     
   2 C2             0.0021    -0.0041     0.0020 C.2     
   3 C3            -1.1878    -0.8008     0.0091 C.1     
   4 S4             1.5675     2.0054    -0.0021 S.3     
   5 C5             2.2772     0.3990    -0.0175 C.2     
   6 C6             1.2824    -0.5520    -0.0132 C.2     
   7 C7             3.6580     0.1249    -0.0322 C.2     
   8 C8             4.6307     1.2349    -0.0350 C.2     
   9 O9             4.0506    -1.0302    -0.0426 O.2     
  10 N10            1.5294    -1.9154    -0.0224 N.pl3   
  11 N11           -1.1593     2.1393     0.0194 N.pl3   
  12 N12           -2.1317    -1.4328     0.0147 N.1     
  13 O13            4.3523     2.5515    -0.0243 O.3     
  14 C14           -1.0630     3.6011     0.0268 C.3     
  15 C15           -0.9134     4.1019    -1.3866 C.2     
  16 N16            5.3579     3.2220    -0.0300 N.2     
  17 C17            6.4378     2.4798    -0.0451 C.2     
  18 C18            5.9943     1.1300    -0.0430 C.2     
  19 C19            7.8422     2.9540    -0.0568 C.2     
  20 O20            8.7536     2.1520    -0.0709 O.2     
  21 O21            8.1071     4.2742    -0.0516 O.3     
  22 C22           -2.3310     4.1925     0.6459 C.3     
  23 C23           -1.2576     4.4159     2.8910 C.3     
  24 C24            9.5052     4.6660    -0.0637 C.3     
  25 C25            9.6071     6.1926    -0.0557 C.3     
  26 C26           -2.4176     3.7851     2.1181 C.3     
  27 C27           -3.7449     4.2705     2.7044 C.3     
  28 O28           -0.8896     3.3182    -2.3059 O.2     
  29 O29           -0.8066     5.4186    -1.6243 O.3     
  30 C30           -0.6652     5.8290    -3.0100 C.3     
  31 H31            2.4424    -2.2428    -0.0326 H       
  32 H32            0.7893    -2.5424    -0.0187 H       
  33 H33           -2.0294     1.7105     0.0213 H       
  34 H34           -0.1963     3.9051     0.6137 H       
  35 H35            6.5936     0.2316    -0.0520 H       
  36 H36           -2.2990     5.2795     0.5711 H       
  37 H37           -3.2047     3.8172     0.1131 H       
  38 H38           -1.3194     4.1256     3.9398 H       
  39 H39           -0.3121     4.0701     2.4734 H       
  40 H40           -1.3151     5.5014     2.8105 H       
  41 H41           10.0029     4.2640     0.8188 H       
  42 H42            9.9845     4.2746    -0.9610 H       
  43 H43            9.1278     6.5840     0.8416 H       
  44 H44           10.6566     6.4867    -0.0647 H       
  45 H45            9.1095     6.5946    -0.9382 H       
  46 H46           -2.3602     2.6996     2.1987 H       
  47 H47           -4.5713     3.8211     2.1538 H       
  48 H48           -3.8066     3.9802     3.7532 H       
  49 H49           -3.8023     5.3560     2.6239 H       
  50 H50           -0.5890     6.9151    -3.0613 H       
  51 H51            0.2348     5.3813    -3.4315 H       
  52 H52           -1.5353     5.4986    -3.5773 H       
@<TRIPOS>BOND
   1    1    2 2
   2    1    4 1
   3    1   11 1
   4    2    3 1
   5    2    6 1
   6    3   12 3
   7    4    5 1
   8    5    6 2
   9    5    7 1
  10    6   10 1
  11    7    8 1
  12    7    9 2
  13    8   13 1
  14    8   18 2
  15   10   31 1
  16   10   32 1
  17   11   14 1
  18   11   33 1
  19   13   16 1
  20   14   15 1
  21   14   22 1
  22   14   34 1
  23   15   28 2
  24   15   29 1
  25   16   17 2
  26   17   18 1
  27   17   19 1
  28   18   35 1
  29   19   20 2
  30   19   21 1
  31   21   24 1
  32   22   26 1
  33   22   36 1
  34   22   37 1
  35   23   26 1
  36   23   38 1
  37   23   39 1
  38   23   40 1
  39   24   25 1
  40   24   41 1
  41   24   42 1
  42   25   43 1
  43   25   44 1
  44   25   45 1
  45   26   27 1
  46   26   46 1
  47   27   47 1
  48   27   48 1
  49   27   49 1
  50   29   30 1
  51   30   50 1
  52   30   51 1
  53   30   52 1

#	End of record

