#	Name: ASD06352010
#	Creating user name:	WinNT
#	Creation time:	15. 06. 2019 21:06

#	Modifying user name:	WinNT
#	Modification time:	15. 06. 2019 21:06

#	Program:	/corina/corina34_cracker 3.40 0067  02.08.2006

@<TRIPOS>MOLECULE
ASD06352010
 120  120    0    0    0
SMALL
NO_CHARGES


@<TRIPOS>ATOM
   1 C1            -0.2897    -1.3157    -0.1808 C.2     
   2 O2            -0.3383    -2.4866    -0.4931 O.2     
   3 N3             2.1007    -1.6853     0.0521 N.3     
   4 C4             1.0331    -0.6828     0.1666 C.3     
   5 C5             1.3137     0.4733    -0.7955 C.3     
   6 C6            -3.6540    -0.1291    -0.9785 C.2     
   7 O7            -3.3911     1.0426    -0.8084 O.2     
   8 N8            -1.4179    -0.5791    -0.1500 N.am    
   9 C9            -2.7030    -1.1928    -0.4936 C.3     
  10 C10           -3.2893    -1.8754     0.7438 C.3     
  11 C11           -2.3973    -3.0507     1.1488 C.3     
  12 C12           -3.3617    -0.8699     1.8948 C.3     
  13 C13           -7.1427     0.1290    -1.4789 C.2     
  14 O14           -7.2819    -0.9214    -0.8888 O.2     
  15 N15           -4.7967    -0.4799    -1.6012 N.am    
  16 C16           -5.7780     0.5458    -1.9637 C.3     
  17 C17           -5.8054     0.7106    -3.4845 C.3     
  18 C18           -4.4543     1.1753    -3.9638 C.2     
  19 O19           -3.5461     1.3174    -3.1727 O.2     
  20 N20           -4.2553     1.4330    -5.2717 N.am    
  21 C21          -10.5445     1.5733    -1.6028 C.2     
  22 O22          -10.1906     2.5659    -2.2031 O.2     
  23 N23           -8.2084     0.9234    -1.7012 N.am    
  24 C24           -9.5351     0.5182    -1.2300 C.3     
  25 C25          -13.9903     2.3745    -0.6823 C.2     
  26 O26          -14.2148     1.3545    -0.0658 O.2     
  27 N27          -11.8405     1.4138    -1.2692 N.am    
  28 C28          -12.8218     2.4394    -1.6317 C.3     
  29 C29          -13.3114     2.1946    -3.0604 C.3     
  30 C30          -13.8311     0.7608    -3.1828 C.3     
  31 C31          -14.4345     0.5539    -4.5735 C.3     
  32 C32          -12.1537     2.4026    -4.0389 C.3     
  33 C33          -17.0075     2.4834    -0.2544 C.2     
  34 O34          -16.7159     1.7956    -1.2098 O.2     
  35 N35          -14.7858     3.4500    -0.5182 N.am    
  36 C36          -16.0202     3.4891     0.2795 C.3     
  37 C37          -16.6018     4.9130     0.1543 C.3     
  38 C38          -15.9665     5.4333    -1.1622 C.3     
  39 C39          -14.5589     4.7838    -1.1037 C.3     
  40 C40          -20.5731     1.7996     0.1719 C.2     
  41 O41          -20.7508     2.8212     0.8009 O.2     
  42 N42          -18.2145     2.3484     0.3298 N.am    
  43 C43          -19.1743     1.3708    -0.1892 C.3     
  44 C44          -18.8870    -0.0011     0.4242 C.3     
  45 C45          -17.4280    -0.3809     0.1636 C.3     
  46 O46          -19.1221     0.0483     1.8329 O.3     
  47 C47          -23.3186     0.9784     1.5342 C.2     
  48 O48          -22.5031     0.3482     2.1648 O.2     
  49 N49          -21.6266     1.0478    -0.2041 N.am    
  50 C50          -22.9865     1.4647     0.1470 C.3     
  51 C51          -23.9775     0.8671    -0.8539 C.3     
  52 C52          -23.7189     1.4570    -2.2417 C.3     
  53 C53          -24.7099     0.8594    -3.2426 C.3     
  54 N54          -24.4623     1.4242    -4.5715 N.pl3   
  55 C55          -25.2352     1.0336    -5.6393 C.2     
  56 N56          -25.0149     1.5361    -6.8216 N.2     
  57 N57          -26.2405     0.1131    -5.4600 N.pl3   
  58 O58          -24.5204     1.2453     2.0691 O.3     
  59 H59            2.9984    -1.2852     0.2803 H       
  60 H60            1.9056    -2.4890     0.6302 H       
  61 H61            0.9978    -0.3047     1.1883 H       
  62 H62            1.3491     0.0952    -1.8172 H       
  63 H63            0.5216     1.2171    -0.7105 H       
  64 H64            2.2705     0.9310    -0.5442 H       
  65 H65           -1.3791     0.3574     0.0998 H       
  66 H66           -2.5536    -1.9326    -1.2801 H       
  67 H67           -4.2909    -2.2408     0.5170 H       
  68 H68           -1.3957    -2.6854     1.3756 H       
  69 H69           -2.8150    -3.5370     2.0303 H       
  70 H70           -2.3457    -3.7670     0.3288 H       
  71 H71           -2.3741    -0.4418     2.0659 H       
  72 H72           -4.0629    -0.0754     1.6395 H       
  73 H73           -3.6998    -1.3763     2.7989 H       
  74 H74           -4.9694    -1.4114    -1.8093 H       
  75 H75           -5.5015     1.4929    -1.5005 H       
  76 H76           -6.0467    -0.2454    -3.9493 H       
  77 H77           -6.5607     1.4478    -3.7566 H       
  78 H78           -4.9816     1.3193    -5.9044 H       
  79 H79           -3.3856     1.7321    -5.5802 H       
  80 H80           -8.0971     1.7635    -2.1732 H       
  81 H81           -9.5156     0.4008    -0.1465 H       
  82 H82           -9.8115    -0.4289    -1.6931 H       
  83 H83          -12.1236     0.6198    -0.7892 H       
  84 H84          -12.3580     3.4239    -1.5703 H       
  85 H85          -14.1146     2.8934    -3.2941 H       
  86 H86          -13.0075     0.0620    -3.0365 H       
  87 H87          -14.5953     0.5854    -2.4255 H       
  88 H88          -14.8048    -0.4675    -4.6607 H       
  89 H89          -15.2581     1.2527    -4.7198 H       
  90 H90          -13.6704     0.7293    -5.3308 H       
  91 H91          -12.5024     2.2282    -5.0568 H       
  92 H92          -11.7834     3.4240    -3.9518 H       
  93 H93          -11.3505     1.7037    -3.8053 H       
  94 H94          -15.7944     3.2688     1.3229 H       
  95 H95          -17.6881     4.8800     0.0715 H       
  96 H96          -16.2969     5.5298     0.9997 H       
  97 H97          -16.5257     5.0845    -2.0304 H       
  98 H98          -15.8935     6.5209    -1.1576 H       
  99 H99          -13.8946     5.3692    -0.4680 H       
 100 H100         -14.1420     4.6920    -2.1066 H       
 101 H101         -18.4477     2.8985     1.0940 H       
 102 H102         -19.0812     1.3107    -1.2735 H       
 103 H103         -19.5425    -0.7456    -0.0276 H       
 104 H104         -16.7725     0.3635     0.6155 H       
 105 H105         -17.2234    -1.3583     0.6006 H       
 106 H106         -17.2487    -0.4186    -0.9109 H       
 107 H107         -18.5719     0.6911     2.3011 H       
 108 H108         -21.4845     0.2307    -0.7071 H       
 109 H109         -23.0520     2.5523     0.1179 H       
 110 H110         -23.8501    -0.2148    -0.8894 H       
 111 H111         -24.9951     1.1031    -0.5426 H       
 112 H112         -23.8462     2.5389    -2.2062 H       
 113 H113         -22.7013     1.2209    -2.5530 H       
 114 H114         -24.5825    -0.2226    -3.2781 H       
 115 H115         -25.7275     1.0954    -2.9313 H       
 116 H116         -23.7530     2.0736    -4.6979 H       
 117 H117         -25.5602     1.2606    -7.5750 H       
 118 H118         -26.4044    -0.2608    -4.5801 H       
 119 H119         -26.7858    -0.1624    -6.2134 H       
 120 H120         -24.6874     0.9126     2.9616 H       
@<TRIPOS>BOND
   1    1    2 2
   2    1    4 1
   3    1    8 am
   4    3    4 1
   5    3   59 1
   6    3   60 1
   7    4    5 1
   8    4   61 1
   9    5   62 1
  10    5   63 1
  11    5   64 1
  12    6    7 2
  13    6    9 1
  14    6   15 am
  15    8    9 1
  16    8   65 1
  17    9   10 1
  18    9   66 1
  19   10   11 1
  20   10   12 1
  21   10   67 1
  22   11   68 1
  23   11   69 1
  24   11   70 1
  25   12   71 1
  26   12   72 1
  27   12   73 1
  28   13   14 2
  29   13   16 1
  30   13   23 am
  31   15   16 1
  32   15   74 1
  33   16   17 1
  34   16   75 1
  35   17   18 1
  36   17   76 1
  37   17   77 1
  38   18   19 2
  39   18   20 am
  40   20   78 1
  41   20   79 1
  42   21   22 2
  43   21   24 1
  44   21   27 am
  45   23   24 1
  46   23   80 1
  47   24   81 1
  48   24   82 1
  49   25   26 2
  50   25   28 1
  51   25   35 am
  52   27   28 1
  53   27   83 1
  54   28   29 1
  55   28   84 1
  56   29   30 1
  57   29   32 1
  58   29   85 1
  59   30   31 1
  60   30   86 1
  61   30   87 1
  62   31   88 1
  63   31   89 1
  64   31   90 1
  65   32   91 1
  66   32   92 1
  67   32   93 1
  68   33   34 2
  69   33   42 am
  70   33   36 1
  71   35   36 1
  72   35   39 1
  73   36   37 1
  74   36   94 1
  75   37   38 1
  76   37   95 1
  77   37   96 1
  78   38   39 1
  79   38   97 1
  80   38   98 1
  81   39   99 1
  82   39  100 1
  83   40   41 2
  84   40   43 1
  85   40   49 am
  86   42   43 1
  87   42  101 1
  88   43   44 1
  89   43  102 1
  90   44   45 1
  91   44   46 1
  92   44  103 1
  93   45  104 1
  94   45  105 1
  95   45  106 1
  96   46  107 1
  97   47   48 2
  98   47   50 1
  99   47   58 1
 100   49   50 1
 101   49  108 1
 102   50   51 1
 103   50  109 1
 104   51   52 1
 105   51  110 1
 106   51  111 1
 107   52   53 1
 108   52  112 1
 109   52  113 1
 110   53   54 1
 111   53  114 1
 112   53  115 1
 113   54   55 1
 114   54  116 1
 115   55   56 2
 116   55   57 1
 117   56  117 1
 118   57  118 1
 119   57  119 1
 120   58  120 1

#	End of record

