#	Name: ASD01911316
#	Creating user name:	WinNT
#	Creation time:	15. 06. 2019 19:57

#	Modifying user name:	WinNT
#	Modification time:	15. 06. 2019 19:57

#	Program:	/corina/corina34_cracker 3.40 0067  02.08.2006

@<TRIPOS>MOLECULE
ASD01911316
  30   32    0    0    0
SMALL
NO_CHARGES


@<TRIPOS>ATOM
   1 C1             0.0013     1.3683    -0.3030 C.ar    
   2 C2            -0.8046     1.5470    -1.4135 C.ar    
   3 C3            -0.4239     2.4171    -2.4197 C.ar    
   4 C4             0.7635     3.1124    -2.3220 C.ar    
   5 C5             1.5816     2.9368    -1.2041 C.ar    
   6 C6             1.1910     2.0575    -0.1922 C.ar    
   7 C7             4.7440     4.2969     0.0794 C.ar    
   8 C8             6.0032     3.7809    -0.2087 C.ar    
   9 N9             7.0837     4.5285    -0.1257 N.ar    
  10 C10            7.0222     5.8005     0.2342 C.ar    
  11 C11            5.7858     6.3955     0.5416 C.ar    
  12 C12            4.6220     5.6252     0.4559 C.ar    
  13 N13            7.9676     6.7914     0.4002 N.pl3   
  14 C14            7.3124     7.9193     0.7885 C.2     
  15 N15            6.0347     7.6879     0.8714 N.2     
  16 C16            9.4119     6.6545     0.1964 C.3     
  17 O17            3.6415     3.5063    -0.0129 O.3     
  18 C18            2.8545     3.6780    -1.0926 C.2     
  19 O19            3.1916     4.4423    -1.9746 O.2     
  20 H20           -0.3039     0.6909     0.4809 H       
  21 H21           -1.7349     1.0046    -1.4953 H       
  22 H22           -1.0577     2.5519    -3.2838 H       
  23 H23            1.0598     3.7907    -3.1084 H       
  24 H24            1.8190     1.9174     0.6752 H       
  25 H25            6.0963     2.7468    -0.5059 H       
  26 H26            3.6563     6.0510     0.6850 H       
  27 H27            7.7843     8.8679     0.9979 H       
  28 H28            9.6571     6.8933    -0.8385 H       
  29 H29            9.9391     7.3382     0.8617 H       
  30 H30            9.7141     5.6302     0.4143 H       
@<TRIPOS>BOND
   1    1    2 ar
   2    1    6 ar
   3    1   20 1
   4    2    3 ar
   5    2   21 1
   6    3    4 ar
   7    3   22 1
   8    4    5 ar
   9    4   23 1
  10    5    6 ar
  11    5   18 1
  12    6   24 1
  13    7    8 ar
  14    7   17 1
  15    7   12 ar
  16    8    9 ar
  17    8   25 1
  18    9   10 ar
  19   10   11 ar
  20   10   13 1
  21   11   12 ar
  22   11   15 1
  23   12   26 1
  24   13   14 1
  25   13   16 1
  26   14   15 2
  27   14   27 1
  28   16   28 1
  29   16   29 1
  30   16   30 1
  31   17   18 1
  32   18   19 2

#	End of record

