#	Name: ASD09116154
#	Creating user name:	WinNT
#	Creation time:	15. 06. 2019 21:20

#	Modifying user name:	WinNT
#	Modification time:	15. 06. 2019 21:20

#	Program:	/corina/corina34_cracker 3.40 0067  02.08.2006

@<TRIPOS>MOLECULE
ASD09116154
  81   87    0    0    0
SMALL
NO_CHARGES


@<TRIPOS>ATOM
   1 N1            -0.3341     3.4112    -0.4139 N.2     
   2 C2            -0.5634     1.9576    -0.4920 C.3     
   3 C3             0.9598     3.5787    -0.3739 C.2     
   4 N4             1.6394     2.4145    -0.4153 N.2     
   5 C5             0.8396     1.3826    -0.4863 C.2     
   6 N6             1.5678     4.8155    -0.2973 N.pl3   
   7 C7             2.9573     4.9047    -0.1428 C.ar    
   8 C8             3.6480     5.9802    -0.6842 C.ar    
   9 C9             3.6427     3.9198     0.5569 C.ar    
  10 C10            5.0134     4.0080     0.7091 C.ar    
  11 C11            5.7054     5.0832     0.1614 C.ar    
  12 C12            5.0185     6.0688    -0.5328 C.ar    
  13 N13            1.1919     0.0701    -0.5435 N.pl3   
  14 C14           -1.3399     1.4768     0.7067 C.ar    
  15 C15           -1.8364     2.4012     1.6028 C.ar    
  16 N16           -1.5345     0.1752     0.8727 N.ar    
  17 C17           -2.1999    -0.2731     1.8960 C.ar    
  18 C18           -2.7342     0.5915     2.8586 C.ar    
  19 C19           -2.5597     1.9594     2.7215 C.ar    
  20 C20           -2.4889    -1.7330     2.1937 C.3     
  21 C21           -1.9243    -2.0026     3.6038 C.3     
  22 C22           -2.4965    -0.9770     4.5848 C.3     
  23 N23           -3.4178    -0.0555     3.8911 N.3     
  24 C24           -4.5381    -0.8313     3.3238 C.3     
  25 C25           -4.0227    -1.8520     2.3069 C.3     
  26 C26           -3.1075     2.9135     3.7157 C.ar    
  27 N27            7.0950     5.1738     0.3156 N.3     
  28 C28            7.7702     5.1835    -0.9896 C.3     
  29 C29            9.2757     5.3632    -0.7809 C.3     
  30 N30            9.7841     4.2733     0.0636 N.3     
  31 C31            9.1089     4.2636     1.3689 C.3     
  32 C32            7.6034     4.0839     1.1602 C.3     
  33 F33            5.6808     3.0508     1.3900 F       
  34 C34           -2.2906     3.9034     4.2593 C.ar    
  35 C35           -4.4429     2.8274     4.1060 C.ar    
  36 C36           -4.9474     3.7183     5.0313 C.ar    
  37 C37           -4.1307     4.6957     5.5710 C.ar    
  38 C38           -2.8059     4.7889     5.1838 C.ar    
  39 C39           11.2411     4.3684     0.2253 C.3     
  40 C40           11.9108     4.1247    -1.1025 C.2     
  41 O41           11.2522     3.7913    -2.0591 O.2     
  42 O42           13.2389     4.2779    -1.2225 O.3     
  43 C43           13.8159     4.0263    -2.5310 C.3     
  44 C44           15.3284     4.2501    -2.4730 C.3     
  45 H45           -1.0837     1.6994    -1.4144 H       
  46 H46            1.0329     5.6230    -0.3505 H       
  47 H47            3.1140     6.7479    -1.2244 H       
  48 H48            3.1045     3.0856     0.9821 H       
  49 H49            5.5557     6.9036    -0.9581 H       
  50 H50            2.1286    -0.1816    -0.5338 H       
  51 H51            0.5063    -0.6143    -0.5940 H       
  52 H52           -1.6694     3.4565     1.4448 H       
  53 H53           -2.0654    -2.4006     1.4434 H       
  54 H54           -2.2053    -3.0064     3.9222 H       
  55 H55           -0.8377    -1.9185     3.5825 H       
  56 H56           -3.0366    -1.4979     5.3754 H       
  57 H57           -1.6794    -0.4052     5.0246 H       
  58 H58           -5.0566    -1.3545     4.1273 H       
  59 H59           -5.2331    -0.1516     2.8307 H       
  60 H60           -4.4752    -1.6568     1.3346 H       
  61 H61           -4.2861    -2.8574     2.6354 H       
  62 H62            7.5843     4.2398    -1.5023 H       
  63 H63            7.3857     6.0067    -1.5918 H       
  64 H64            9.7818     5.3417    -1.7461 H       
  65 H65            9.4636     6.3195    -0.2927 H       
  66 H66            9.4934     3.4404     1.9711 H       
  67 H67            9.2949     5.2074     1.8816 H       
  68 H68            7.0973     4.1054     2.1253 H       
  69 H69            7.4156     3.1276     0.6719 H       
  70 H70           -1.2561     3.9771     3.9577 H       
  71 H71           -5.0816     2.0651     3.6847 H       
  72 H72           -5.9819     3.6525     5.3344 H       
  73 H73           -4.5298     5.3910     6.2946 H       
  74 H74           -2.1728     5.5537     5.6088 H       
  75 H75           11.5024     5.3629     0.5869 H       
  76 H76           11.5764     3.6207     0.9440 H       
  77 H77           13.6120     2.9971    -2.8262 H       
  78 H78           13.3755     4.7072    -3.2593 H       
  79 H79           15.5323     5.2794    -2.1777 H       
  80 H80           15.7687     3.5692    -1.7446 H       
  81 H81           15.7615     4.0612    -3.4552 H       
@<TRIPOS>BOND
   1    1    2 1
   2    1    3 2
   3    2   14 1
   4    2    5 1
   5    2   45 1
   6    3    4 1
   7    3    6 1
   8    4    5 2
   9    5   13 1
  10    6    7 1
  11    6   46 1
  12    7    8 ar
  13    7    9 ar
  14    8   12 ar
  15    8   47 1
  16    9   10 ar
  17    9   48 1
  18   10   11 ar
  19   10   33 1
  20   11   12 ar
  21   11   27 1
  22   12   49 1
  23   13   50 1
  24   13   51 1
  25   14   15 ar
  26   14   16 ar
  27   15   19 ar
  28   15   52 1
  29   16   17 ar
  30   17   18 ar
  31   17   20 1
  32   18   19 ar
  33   18   23 1
  34   19   26 1
  35   20   21 1
  36   20   25 1
  37   20   53 1
  38   21   22 1
  39   21   54 1
  40   21   55 1
  41   22   23 1
  42   22   56 1
  43   22   57 1
  44   23   24 1
  45   24   25 1
  46   24   58 1
  47   24   59 1
  48   25   60 1
  49   25   61 1
  50   26   34 ar
  51   26   35 ar
  52   27   28 1
  53   27   32 1
  54   28   29 1
  55   28   62 1
  56   28   63 1
  57   29   30 1
  58   29   64 1
  59   29   65 1
  60   30   31 1
  61   30   39 1
  62   31   32 1
  63   31   66 1
  64   31   67 1
  65   32   68 1
  66   32   69 1
  67   34   38 ar
  68   34   70 1
  69   35   36 ar
  70   35   71 1
  71   36   37 ar
  72   36   72 1
  73   37   38 ar
  74   37   73 1
  75   38   74 1
  76   39   40 1
  77   39   75 1
  78   39   76 1
  79   40   41 2
  80   40   42 1
  81   42   43 1
  82   43   44 1
  83   43   77 1
  84   43   78 1
  85   44   79 1
  86   44   80 1
  87   44   81 1

#	End of record

