#	Name: ASD05313086
#	Creating user name:	WinNT
#	Creation time:	15. 06. 2019 20:58

#	Modifying user name:	WinNT
#	Modification time:	15. 06. 2019 20:58

#	Program:	/corina/corina34_cracker 3.40 0067  02.08.2006

@<TRIPOS>MOLECULE
ASD05313086
  40   43    0    0    0
SMALL
NO_CHARGES


@<TRIPOS>ATOM
   1 C1            -0.1376     1.5939     0.1660 C.2     
   2 C2            -0.1240     0.0843     0.1329 C.3     
   3 N3             0.9923     2.3602     0.1470 N.pl3   
   4 N4             1.2568    -0.3257    -0.1858 N.am    
   5 C5             2.3615     0.3692     0.4922 C.3     
   6 C6             2.3590     1.8464     0.0804 C.3     
   7 N7            -0.7514     3.6192     0.2394 N.2     
   8 N8            -1.1563     2.3958     0.2209 N.2     
   9 C9             0.5676     3.6542     0.1975 C.2     
  10 N10            0.9753     6.1581     0.1686 N.pl3   
  11 C11            1.4157     4.8580     0.2071 C.2     
  12 C12            2.7797     4.8803     0.2567 C.2     
  13 C13            3.1758     6.2260     0.2481 C.2     
  14 C14            2.0581     6.9840     0.1940 C.2     
  15 C15           -0.4246     6.5852     0.1045 C.3     
  16 C16            1.4993    -1.3104    -1.0735 C.2     
  17 O17            2.6415    -1.5620    -1.4054 O.2     
  18 C18            0.3778    -2.0837    -1.6429 C.ar    
  19 C19            0.2517    -2.2204    -3.0286 C.ar    
  20 C20           -0.7985    -2.9448    -3.5543 C.ar    
  21 C21           -1.7265    -3.5357    -2.7112 C.ar    
  22 C22           -1.6059    -3.4025    -1.3362 C.ar    
  23 C23           -0.5580    -2.6863    -0.7992 C.ar    
  24 F24           -2.7529    -4.2439    -3.2312 F       
  25 Cl25           1.4132    -1.4802    -4.0852 Cl      
  26 H26           -0.4147    -0.3119     1.1058 H       
  27 H27           -0.8065    -0.2772    -0.6363 H       
  28 H28            2.2319     0.2921     1.5717 H       
  29 H29            3.3089    -0.0869     0.2053 H       
  30 H30            2.7347     1.9414    -0.9384 H       
  31 H31            2.9953     2.4147     0.7588 H       
  32 H32            3.4329     4.0211     0.2955 H       
  33 H33            4.1918     6.5910     0.2796 H       
  34 H34            2.0286     8.0635     0.1744 H       
  35 H35           -0.8406     6.6189     1.1114 H       
  36 H36           -0.4818     7.5763    -0.3457 H       
  37 H37           -0.9928     5.8782    -0.5000 H       
  38 H38           -0.8978    -3.0512    -4.6245 H       
  39 H39           -2.3326    -3.8647    -0.6844 H       
  40 H40           -0.4630    -2.5876     0.2720 H       
@<TRIPOS>BOND
   1    1    2 1
   2    1    3 1
   3    1    8 2
   4    2    4 1
   5    2   26 1
   6    2   27 1
   7    3    6 1
   8    3    9 1
   9    4    5 1
  10    4   16 am
  11    5    6 1
  12    5   28 1
  13    5   29 1
  14    6   30 1
  15    6   31 1
  16    7    8 1
  17    7    9 2
  18    9   11 1
  19   10   11 1
  20   10   14 1
  21   10   15 1
  22   11   12 2
  23   12   13 1
  24   12   32 1
  25   13   14 2
  26   13   33 1
  27   14   34 1
  28   15   35 1
  29   15   36 1
  30   15   37 1
  31   16   17 2
  32   16   18 1
  33   18   19 ar
  34   18   23 ar
  35   19   20 ar
  36   19   25 1
  37   20   21 ar
  38   20   38 1
  39   21   22 ar
  40   21   24 1
  41   22   23 ar
  42   22   39 1
  43   23   40 1

#	End of record

