#	Name: ASD01918105
#	Creating user name:	WinNT
#	Creation time:	15. 06. 2019 20:10

#	Modifying user name:	WinNT
#	Modification time:	15. 06. 2019 20:10

#	Program:	/corina/corina34_cracker 3.40 0067  02.08.2006

@<TRIPOS>MOLECULE
ASD01918105
  44   47    0    0    0
SMALL
NO_CHARGES


@<TRIPOS>ATOM
   1 N1            -0.1223     1.4395    -0.5224 N.am    
   2 C2            -0.0498     0.0430    -0.5418 C.2     
   3 C3             1.8454     0.0232    -2.1652 C.3     
   4 C4             1.3796     1.4558    -2.4491 C.3     
   5 C5             1.0136     2.1560    -1.1358 C.3     
   6 C6            -0.7936    -0.8681     0.1215 C.2     
   7 C7            -0.3261    -2.1391    -0.2360 C.2     
   8 N8             0.6634    -1.9953    -1.0846 N.2     
   9 N9             0.8618    -0.6323    -1.2995 N.pl3   
  10 C10           -0.8688    -3.4511     0.2693 C.3     
  11 O11           -1.9436    -3.2036     1.1780 O.3     
  12 C12           -1.1696     2.0926     0.0191 C.2     
  13 C13           -1.1406     3.5643     0.1384 C.ar    
  14 O14           -2.1384     1.4700     0.4092 O.2     
  15 C15           -2.5481    -4.2890     1.7287 C.ar    
  16 C16           -3.5987    -4.1219     2.6193 C.ar    
  17 C17           -4.2115    -5.2269     3.1778 C.ar    
  18 C18           -3.7787    -6.4984     2.8500 C.ar    
  19 C19           -2.7316    -6.6676     1.9630 C.ar    
  20 C20           -2.1195    -5.5661     1.3970 C.ar    
  21 C21            0.0934     5.6009     0.4514 C.ar    
  22 C22            0.0720     4.2272     0.3407 C.ar    
  23 C23           -2.3248     4.2987     0.0436 C.ar    
  24 C24           -2.2919     5.6720     0.1558 C.ar    
  25 C25           -1.0860     6.3247     0.3618 C.ar    
  26 F26           -1.0594     7.6710     0.4710 F       
  27 H27            1.9297    -0.5260    -3.1030 H       
  28 H28            2.8137     0.0464    -1.6653 H       
  29 H29            2.1814     2.0062    -2.9415 H       
  30 H30            0.5066     1.4301    -3.1012 H       
  31 H31            0.7288     3.1884    -1.3383 H       
  32 H32            1.8680     2.1350    -0.4593 H       
  33 H33           -1.6028    -0.6553     0.8044 H       
  34 H34           -1.2325    -4.0418    -0.5714 H       
  35 H35           -0.0778    -3.9980     0.7825 H       
  36 H36           -3.9368    -3.1289     2.8760 H       
  37 H37           -5.0291    -5.0973     3.8715 H       
  38 H38           -4.2591    -7.3610     3.2877 H       
  39 H39           -2.3949    -7.6619     1.7091 H       
  40 H40           -1.3016    -5.6987     0.7042 H       
  41 H41            1.0304     6.1146     0.6082 H       
  42 H42            0.9911     3.6645     0.4106 H       
  43 H43           -3.2645     3.7914    -0.1176 H       
  44 H44           -3.2070     6.2409     0.0827 H       
@<TRIPOS>BOND
   1    1    2 1
   2    1    5 1
   3    1   12 am
   4    2    6 2
   5    2    9 1
   6    3    4 1
   7    3    9 1
   8    3   27 1
   9    3   28 1
  10    4    5 1
  11    4   29 1
  12    4   30 1
  13    5   31 1
  14    5   32 1
  15    6    7 1
  16    6   33 1
  17    7    8 2
  18    7   10 1
  19    8    9 1
  20   10   11 1
  21   10   34 1
  22   10   35 1
  23   11   15 1
  24   12   13 1
  25   12   14 2
  26   13   23 ar
  27   13   22 ar
  28   15   16 ar
  29   15   20 ar
  30   16   17 ar
  31   16   36 1
  32   17   18 ar
  33   17   37 1
  34   18   19 ar
  35   18   38 1
  36   19   20 ar
  37   19   39 1
  38   20   40 1
  39   21   22 ar
  40   21   25 ar
  41   21   41 1
  42   22   42 1
  43   23   24 ar
  44   23   43 1
  45   24   25 ar
  46   24   44 1
  47   25   26 1

#	End of record

