#	Name: ASD01230782
#	Creating user name:	WinNT
#	Creation time:	15. 06. 2019 19:15

#	Modifying user name:	WinNT
#	Modification time:	15. 06. 2019 19:15

#	Program:	/corina/corina34_cracker 3.40 0067  02.08.2006

@<TRIPOS>MOLECULE
ASD01230782
  35   38    0    0    0
SMALL
NO_CHARGES


@<TRIPOS>ATOM
   1 C1            -0.0166     1.3737     0.0096 C.2     
   2 C2             0.0021    -0.0041     0.0020 C.2     
   3 C3            -1.2146    -0.7002     0.0083 C.2     
   4 C4            -2.3849    -0.0394     0.0105 C.2     
   5 N5            -2.4623     1.3312     0.0009 N.pl3   
   6 C6            -1.3175     2.0758     0.0320 C.2     
   7 C7            -3.8098     1.9044    -0.0497 C.3     
   8 C8            -3.8783     3.1902     0.7794 C.3     
   9 S9            -2.6220     4.3262     0.1115 S.o2    
  10 N10           -1.2619     3.3847     0.0817 N.am    
  11 C11            1.2497     2.1409     0.0016 C.ar    
  12 O12           -2.8867     4.6253    -1.2522 O.2     
  13 O13           -2.3214     5.3523     1.0474 O.2     
  14 C14            2.1050     2.0755    -1.0998 C.ar    
  15 C15            3.2787     2.7917    -1.0989 C.ar    
  16 C16            3.6343     3.5788    -0.0095 C.ar    
  17 C17            2.7765     3.6457     1.0877 C.ar    
  18 C18            1.5948     2.9397     1.0926 C.ar    
  19 C19            4.3809     2.9369    -2.1306 C.3     
  20 C20            5.1393     4.1831    -1.6158 C.3     
  21 O21            4.8401     4.1794    -0.2096 O.3     
  22 H22            0.9399    -0.5395    -0.0090 H       
  23 H23           -1.2115    -1.7802     0.0110 H       
  24 H24           -3.3018    -0.6099     0.0199 H       
  25 H25           -4.0660     2.1300    -1.0849 H       
  26 H26           -4.5230     1.1821     0.3474 H       
  27 H27           -4.8684     3.6374     0.6903 H       
  28 H28           -3.6618     2.9701     1.8248 H       
  29 H29            1.8454     1.4633    -1.9508 H       
  30 H30            3.0390     4.2586     1.9373 H       
  31 H31            0.9365     2.9979     1.9468 H       
  32 H32            5.0290     2.0605    -2.1341 H       
  33 H33            3.9651     3.1160    -3.1221 H       
  34 H34            6.2114     4.0790    -1.7828 H       
  35 H35            4.7598     5.0887    -2.0890 H       
@<TRIPOS>BOND
   1    1    2 2
   2    1   11 1
   3    1    6 1
   4    2    3 1
   5    2   22 1
   6    3    4 2
   7    3   23 1
   8    4    5 1
   9    4   24 1
  10    5    6 1
  11    5    7 1
  12    6   10 2
  13    7    8 1
  14    7   25 1
  15    7   26 1
  16    8    9 1
  17    8   27 1
  18    8   28 1
  19    9   10 am
  20    9   12 2
  21    9   13 2
  22   11   14 ar
  23   11   18 ar
  24   14   15 ar
  25   14   29 1
  26   15   16 ar
  27   15   19 1
  28   16   17 ar
  29   16   21 1
  30   17   18 ar
  31   17   30 1
  32   18   31 1
  33   19   20 1
  34   19   32 1
  35   19   33 1
  36   20   21 1
  37   20   34 1
  38   20   35 1

#	End of record

