#	Name: ASD01940269
#	Creating user name:	WinNT
#	Creation time:	15. 06. 2019 20:12

#	Modifying user name:	WinNT
#	Modification time:	15. 06. 2019 20:12

#	Program:	/corina/corina34_cracker 3.40 0067  02.08.2006

@<TRIPOS>MOLECULE
ASD01940269
  32   33    0    0    0
SMALL
NO_CHARGES


@<TRIPOS>ATOM
   1 F1             1.9042     1.5935     2.2869 F       
   2 C2             1.0657     2.1480     1.3843 C.ar    
   3 C3             1.3898     2.1333     0.0342 C.ar    
   4 C4             0.5213     2.7063    -0.8934 C.ar    
   5 C5            -0.6621     3.2882    -0.4639 C.ar    
   6 C6            -0.9796     3.3000     0.8818 C.ar    
   7 C7            -0.1211     2.7269     1.8045 C.ar    
   8 N8             2.5872     1.5443    -0.3947 N.pl3   
   9 N9             0.8434     2.6947    -2.2571 N.am    
  10 C10            2.6336     0.1735    -0.6679 C.ar    
  11 C11            1.4784    -0.5918    -0.5851 C.ar    
  12 C12            1.5270    -1.9460    -0.8560 C.ar    
  13 C13            2.7250    -2.5403    -1.2090 C.ar    
  14 C14            3.8794    -1.7814    -1.2929 C.ar    
  15 C15            3.8367    -0.4252    -1.0288 C.ar    
  16 F16            4.9633     0.3159    -1.1110 F       
  17 Br17           2.7858    -4.3941    -1.5774 Br      
  18 F18           -0.4387     2.7366     3.1176 F       
  19 S19            0.4273     3.9783    -3.2171 S.o2    
  20 C20            1.2794     5.3958    -2.4720 C.3     
  21 O21            0.9918     3.6664    -4.4833 O.2     
  22 O22           -0.9789     4.0984    -3.0515 O.2     
  23 H23           -1.3360     3.7329    -1.1812 H       
  24 H24           -1.9017     3.7538     1.2136 H       
  25 H25            3.3837     2.0875    -0.5021 H       
  26 H26            1.3102     1.9349    -2.6388 H       
  27 H27            0.5424    -0.1292    -0.3089 H       
  28 H28            0.6281    -2.5412    -0.7916 H       
  29 H29            4.8134    -2.2483    -1.5688 H       
  30 H30            2.3545     5.2165    -2.4758 H       
  31 H31            1.0590     6.2954    -3.0467 H       
  32 H32            0.9366     5.5273    -1.4457 H       
@<TRIPOS>BOND
   1    1    2 1
   2    2    3 ar
   3    2    7 ar
   4    3    4 ar
   5    3    8 1
   6    4    5 ar
   7    4    9 1
   8    5    6 ar
   9    5   23 1
  10    6    7 ar
  11    6   24 1
  12    7   18 1
  13    8   10 1
  14    8   25 1
  15    9   19 am
  16    9   26 1
  17   10   11 ar
  18   10   15 ar
  19   11   12 ar
  20   11   27 1
  21   12   13 ar
  22   12   28 1
  23   13   14 ar
  24   13   17 1
  25   14   15 ar
  26   14   29 1
  27   15   16 1
  28   19   20 1
  29   19   21 2
  30   19   22 2
  31   20   30 1
  32   20   31 1
  33   20   32 1

#	End of record

