#	Name: ASD01230022
#	Creating user name:	WinNT
#	Creation time:	15. 06. 2019 19:11

#	Modifying user name:	WinNT
#	Modification time:	15. 06. 2019 19:11

#	Program:	/corina/corina34_cracker 3.40 0067  02.08.2006

@<TRIPOS>MOLECULE
ASD01230022
  42   44    0    0    0
SMALL
NO_CHARGES


@<TRIPOS>ATOM
   1 C1            -0.0187     1.5258     0.0104 C.3     
   2 C2             0.0021    -0.0041     0.0020 C.3     
   3 C3             0.7421    -0.5109     1.2415 C.3     
   4 S4            -1.6997    -0.6320     0.0149 S.o2    
   5 O5            -1.7138    -2.0386    -0.1864 O.2     
   6 O6            -2.4435    -0.0351     1.0684 O.2     
   7 N7            -2.3782    -0.0153    -1.3642 N.am    
   8 C8            -2.7399    -1.5694    -3.2587 C.3     
   9 C9            -1.8762    -0.4306    -2.6764 C.3     
  10 C10           -2.0648     0.6937    -3.7167 C.3     
  11 C11           -2.3846    -0.0170    -5.0146 C.ar    
  12 C12           -2.3389     0.4401    -6.3191 C.ar    
  13 C13           -2.6834    -0.4070    -7.3685 C.ar    
  14 C14           -3.0737    -1.7172    -7.0980 C.ar    
  15 C15           -3.1159    -2.1645    -5.7946 C.ar    
  16 C16           -2.7728    -1.3184    -4.7515 C.ar    
  17 C17           -2.6356     0.0827    -8.7684 C.ar    
  18 C18           -2.9802    -0.7620    -9.8282 C.ar    
  19 C19           -2.9198    -0.2593   -11.1149 C.ar    
  20 C20           -2.5230     1.0547   -11.3112 C.ar    
  21 N21           -2.2038     1.8279   -10.2893 N.ar    
  22 C22           -2.2526     1.3921    -9.0464 C.ar    
  23 F23           -2.4617     1.5512   -12.5662 F       
  24 H24            1.0039     1.9031     0.0027 H       
  25 H25           -0.5459     1.8868    -0.8726 H       
  26 H26           -0.5289     1.8773     0.9072 H       
  27 H27            0.5123    -0.3556    -0.8948 H       
  28 H28            0.2319    -0.1594     2.1383 H       
  29 H29            0.7568    -1.6008     1.2356 H       
  30 H30            1.7647    -0.1336     1.2338 H       
  31 H31           -3.1078     0.6209    -1.3031 H       
  32 H32           -2.2830    -2.5362    -3.0478 H       
  33 H33           -3.7479    -1.5285    -2.8460 H       
  34 H34           -0.8306    -0.7315    -2.6119 H       
  35 H35           -2.8915     1.3424    -3.4270 H       
  36 H36           -1.1468     1.2725    -3.8187 H       
  37 H37           -2.0357     1.4562    -6.5238 H       
  38 H38           -3.3427    -2.3801    -7.9070 H       
  39 H39           -3.4188    -3.1797    -5.5850 H       
  40 H40           -3.2855    -1.7819    -9.6462 H       
  41 H41           -3.1784    -0.8832   -11.9577 H       
  42 H42           -1.9888     2.0557    -8.2362 H       
@<TRIPOS>BOND
   1    1    2 1
   2    1   24 1
   3    1   25 1
   4    1   26 1
   5    2    3 1
   6    2    4 1
   7    2   27 1
   8    3   28 1
   9    3   29 1
  10    3   30 1
  11    4    5 2
  12    4    6 2
  13    4    7 am
  14    7    9 1
  15    7   31 1
  16    8    9 1
  17    8   16 1
  18    8   32 1
  19    8   33 1
  20    9   10 1
  21    9   34 1
  22   10   11 1
  23   10   35 1
  24   10   36 1
  25   11   12 ar
  26   11   16 ar
  27   12   13 ar
  28   12   37 1
  29   13   14 ar
  30   13   17 1
  31   14   15 ar
  32   14   38 1
  33   15   16 ar
  34   15   39 1
  35   17   18 ar
  36   17   22 ar
  37   18   19 ar
  38   18   40 1
  39   19   20 ar
  40   19   41 1
  41   20   21 ar
  42   20   23 1
  43   21   22 ar
  44   22   42 1

#	End of record

