#	Name: ASD00431007
#	Creating user name:	WinNT
#	Creation time:	15. 06. 2019 18:35

#	Modifying user name:	WinNT
#	Modification time:	15. 06. 2019 18:35

#	Program:	/corina/corina34_cracker 3.40 0067  02.08.2006

@<TRIPOS>MOLECULE
ASD00431007
  26   25    0    0    0
SMALL
NO_CHARGES


@<TRIPOS>ATOM
   1 C1            -0.0173     1.4248     0.0099 C.3     
   2 O2             0.0021    -0.0041     0.0020 O.3     
   3 C3            -1.2953    -0.6030     0.0112 C.3     
   4 C4            -1.1538    -2.1264     0.0017 C.3     
   5 C5            -2.5429    -2.7677     0.0115 C.3     
   6 C6             1.3973     3.4842     0.0074 C.3     
   7 C7             1.4181     1.9544    -0.0010 C.3     
   8 N8            -2.4071    -4.2304     0.0023 N.3     
   9 C9             2.8327     4.0138    -0.0034 C.3     
  10 H10           -0.5445     1.7859    -0.8732 H       
  11 H11           -0.5275     1.7763     0.9067 H       
  12 H12           -1.8320    -0.2936     0.9080 H       
  13 H13           -1.8490    -0.2840    -0.8718 H       
  14 H14           -0.6171    -2.4359    -0.8952 H       
  15 H15           -0.6001    -2.4454     0.8847 H       
  16 H16           -3.0796    -2.4582     0.9083 H       
  17 H17           -3.0966    -2.4487    -0.8716 H       
  18 H18            0.8701     3.8453    -0.8756 H       
  19 H19            0.8871     3.8357     0.9042 H       
  20 H20            1.9453     1.5933     0.8821 H       
  21 H21            1.9283     1.6028    -0.8978 H       
  22 H22           -1.8424    -4.5459     0.7766 H       
  23 H23           -3.3116    -4.6776     0.0086 H       
  24 H24            3.3599     3.6527     0.8796 H       
  25 H25            3.3429     3.6623    -0.9002 H       
  26 H26            2.8179     5.1037     0.0026 H       
@<TRIPOS>BOND
   1    1    2 1
   2    1    7 1
   3    1   10 1
   4    1   11 1
   5    2    3 1
   6    3    4 1
   7    3   12 1
   8    3   13 1
   9    4    5 1
  10    4   14 1
  11    4   15 1
  12    5    8 1
  13    5   16 1
  14    5   17 1
  15    6    7 1
  16    6    9 1
  17    6   18 1
  18    6   19 1
  19    7   20 1
  20    7   21 1
  21    8   22 1
  22    8   23 1
  23    9   24 1
  24    9   25 1
  25    9   26 1

#	End of record

