#	Name: ASD00310183
#	Creating user name:	WinNT
#	Creation time:	15. 06. 2019 18:33

#	Modifying user name:	WinNT
#	Modification time:	15. 06. 2019 18:33

#	Program:	/corina/corina34_cracker 3.40 0067  02.08.2006

@<TRIPOS>MOLECULE
ASD00310183
  24   25    0    0    0
SMALL
NO_CHARGES


@<TRIPOS>ATOM
   1 C1            -0.0187     1.5271     0.0104 C.3     
   2 C2             0.0021    -0.0041     0.0020 C.3     
   3 C3             0.9697    -0.5011     1.0404 C.2     
   4 C4             1.8751     0.2635     1.5744 C.2     
   5 C5             2.0346     1.7130     1.2131 C.3     
   6 O6             1.3349     1.9974     0.0000 O.3     
   7 C7            -0.7408     2.0316    -1.2123 C.ar    
   8 C8            -2.0575     2.4418    -1.1171 C.ar    
   9 C9            -2.7200     2.9050    -2.2382 C.ar    
  10 C10           -2.0653     2.9582    -3.4556 C.ar    
  11 C11           -0.7478     2.5477    -3.5503 C.ar    
  12 C12           -0.0845     2.0895    -2.4276 C.ar    
  13 Br13          -2.9714     3.5913    -4.9899 Br      
  14 H14           -0.5239     1.8824     0.9085 H       
  15 H15           -0.9957    -0.3818     0.2253 H       
  16 H16            0.3119    -0.3575    -0.9815 H       
  17 H17            0.9098    -1.5326     1.3547 H       
  18 H18            2.5416    -0.1616     2.3102 H       
  19 H19            1.6330     2.3317     2.0156 H       
  20 H20            3.0929     1.9381     1.0811 H       
  21 H21           -2.5687     2.3999    -0.1667 H       
  22 H22           -3.7488     3.2251    -2.1638 H       
  23 H23           -0.2364     2.5887    -4.5007 H       
  24 H24            0.9455     1.7728    -2.5007 H       
@<TRIPOS>BOND
   1    1    2 1
   2    1    6 1
   3    1    7 1
   4    1   14 1
   5    2    3 1
   6    2   15 1
   7    2   16 1
   8    3    4 2
   9    3   17 1
  10    4    5 1
  11    4   18 1
  12    5    6 1
  13    5   19 1
  14    5   20 1
  15    7    8 ar
  16    7   12 ar
  17    8    9 ar
  18    8   21 1
  19    9   10 ar
  20    9   22 1
  21   10   11 ar
  22   10   13 1
  23   11   12 ar
  24   11   23 1
  25   12   24 1

#	End of record

