#	Name: ASD01814888
#	Creating user name:	WinNT
#	Creation time:	15. 06. 2019 19:33

#	Modifying user name:	WinNT
#	Modification time:	15. 06. 2019 19:33

#	Program:	/corina/corina34_cracker 3.40 0067  02.08.2006

@<TRIPOS>MOLECULE
ASD01814888
  52   55    0    0    0
SMALL
NO_CHARGES


@<TRIPOS>ATOM
   1 C1             0.0639     1.4958    -0.0175 C.2     
   2 C2             0.0541     0.0945    -0.0276 C.2     
   3 C3             1.2370    -0.5852    -0.0353 C.2     
   4 C4             2.4452     0.1314    -0.0328 C.2     
   5 N5             2.4253     1.4997    -0.0225 N.am    
   6 C6             1.2371     2.1682    -0.0152 C.2     
   7 C7             3.6621    -0.5647    -0.0406 C.2     
   8 C8             4.8416     0.1218    -0.0379 C.2     
   9 C9             4.8173     1.5288    -0.0277 C.2     
  10 C10            3.5775     2.2000    -0.0197 C.2     
  11 O11            3.5470     3.4190    -0.0113 O.2     
  12 C12            6.0689     2.2892    -0.0242 C.2     
  13 O13            6.0388     3.6378    -0.0144 O.3     
  14 O14            7.1357     1.7047    -0.0300 O.2     
  15 C15            3.6678    -2.0717    -0.0514 C.3     
  16 N16            3.7872    -2.5510    -1.4349 N.3     
  17 C17            4.0339    -3.9992    -1.4711 C.3     
  18 C18            4.0726    -4.4712    -2.9264 C.3     
  19 N19            5.1256    -3.7424    -3.6473 N.3     
  20 C20            4.8789    -2.2941    -3.6111 C.3     
  21 C21            4.8402    -1.8221    -2.1557 C.3     
  22 H22            4.9886    -4.2175    -0.9925 H       
  23 C23            5.2394    -4.1990    -4.9654 C.ar    
  24 C24            4.9139    -3.3616    -6.0219 C.ar    
  25 C25            5.6856    -5.4944    -5.2199 C.ar    
  26 C26            5.7966    -5.9407    -6.5260 C.ar    
  27 C27            5.4652    -5.1016    -7.5745 C.ar    
  28 C28            5.0276    -3.8149    -7.3232 C.ar    
  29 H29            4.2843    -5.5401    -2.9566 H       
  30 H30            3.1088    -4.2777    -3.3973 H       
  31 O31            6.0116    -6.3183    -4.1880 O.3     
  32 C32            6.4614    -7.6323    -4.5241 C.3     
  33 H33           -0.8686     2.0405    -0.0159 H       
  34 H34           -0.8825    -0.4432    -0.0290 H       
  35 H35            1.2444    -1.6652    -0.0428 H       
  36 H36            1.2327     3.2482    -0.0071 H       
  37 H37            5.7824    -0.4084    -0.0431 H       
  38 H38            6.8904     4.0959    -0.0124 H       
  39 H39            4.5123    -2.4361     0.5335 H       
  40 H40            2.7388    -2.4416     0.3824 H       
  41 H41            3.2345    -4.5177    -0.9417 H       
  42 H42            5.6783    -1.7757    -4.1404 H       
  43 H43            3.9242    -2.0758    -4.0897 H       
  44 H44            4.6285    -0.7533    -2.1256 H       
  45 H45            5.8040    -2.0157    -1.6849 H       
  46 H46            4.5713    -2.3559    -5.8282 H       
  47 H47            6.1425    -6.9441    -6.7260 H       
  48 H48            5.5528    -5.4514    -8.5926 H       
  49 H49            4.7699    -3.1634    -8.1450 H       
  50 H50            5.6808    -8.1528    -5.0789 H       
  51 H51            7.3592    -7.5630    -5.1384 H       
  52 H52            6.6874    -8.1835    -3.6113 H       
@<TRIPOS>BOND
   1    1    2 1
   2    1    6 2
   3    1   33 1
   4    2    3 2
   5    2   34 1
   6    3    4 1
   7    3   35 1
   8    4    5 1
   9    4    7 2
  10    5    6 1
  11    5   10 am
  12    6   36 1
  13    7   15 1
  14    7    8 1
  15    8    9 2
  16    8   37 1
  17    9   10 1
  18    9   12 1
  19   10   11 2
  20   12   13 1
  21   12   14 2
  22   13   38 1
  23   15   16 1
  24   15   39 1
  25   15   40 1
  26   16   17 1
  27   16   21 1
  28   17   18 1
  29   17   22 1
  30   17   41 1
  31   18   19 1
  32   18   29 1
  33   18   30 1
  34   19   20 1
  35   19   23 1
  36   20   21 1
  37   20   42 1
  38   20   43 1
  39   21   44 1
  40   21   45 1
  41   23   24 ar
  42   23   25 ar
  43   24   28 ar
  44   24   46 1
  45   25   26 ar
  46   25   31 1
  47   26   27 ar
  48   26   47 1
  49   27   28 ar
  50   27   48 1
  51   28   49 1
  52   31   32 1
  53   32   50 1
  54   32   51 1
  55   32   52 1

#	End of record

