#	Name: ASD05430598
#	Creating user name:	WinNT
#	Creation time:	15. 06. 2019 21:00

#	Modifying user name:	WinNT
#	Modification time:	15. 06. 2019 21:00

#	Program:	/corina/corina34_cracker 3.40 0067  02.08.2006

@<TRIPOS>MOLECULE
ASD05430598
  35   37    0    0    0
SMALL
NO_CHARGES


@<TRIPOS>ATOM
   1 C1            -0.0167     1.3794     0.0096 C.ar    
   2 C2             0.0021    -0.0041     0.0020 C.ar    
   3 C3             1.1720     2.0814     0.0020 C.ar    
   4 C4             2.3969     1.4045     0.0012 C.ar    
   5 C5             2.4019     0.0186    -0.0132 C.ar    
   6 C6             1.2091    -0.6790    -0.0129 C.ar    
   7 C7             1.2236    -2.1858    -0.0283 C.3     
   8 C8             1.9575    -2.7016     1.2112 C.3     
   9 C9            -0.2139    -2.7098    -0.0247 C.3     
  10 C10            1.9419    -2.6761    -1.2871 C.3     
  11 N11            1.2146     3.4780    -0.0278 N.pl3   
  12 C12            2.3746     4.1295    -0.3103 C.2     
  13 C13            3.6449     3.3720    -0.6040 C.3     
  14 O14            3.5666     2.0928     0.0353 O.3     
  15 N15            0.2509     4.4522     0.1866 N.2     
  16 C16            0.8495     5.6108     0.0317 C.2     
  17 N17            2.1359     5.4020    -0.2686 N.2     
  18 C18            0.1922     6.9598     0.1707 C.3     
  19 H19           -0.9582     1.9084     0.0170 H       
  20 H20           -0.9257    -0.5568     0.0081 H       
  21 H21            3.3397    -0.5171    -0.0251 H       
  22 H22            1.4458    -2.3523     2.1080 H       
  23 H23            1.9680    -3.7914     1.2000 H       
  24 H24            2.9816    -2.3283     1.2086 H       
  25 H25           -0.7367    -2.3423    -0.9077 H       
  26 H26           -0.2034    -3.7996    -0.0359 H       
  27 H27           -0.7256    -2.3605     0.8721 H       
  28 H28            2.9660    -2.3028    -1.2897 H       
  29 H29            1.9524    -3.7660    -1.2983 H       
  30 H30            1.4191    -2.3087    -2.1702 H       
  31 H31            3.7521     3.2385    -1.6805 H       
  32 H32            4.5001     3.9249    -0.2153 H       
  33 H33            0.2696     7.2969     1.2043 H       
  34 H34            0.6903     7.6757    -0.4832 H       
  35 H35           -0.8585     6.8825    -0.1086 H       
@<TRIPOS>BOND
   1    1    2 ar
   2    1    3 ar
   3    1   19 1
   4    2    6 ar
   5    2   20 1
   6    3    4 ar
   7    3   11 1
   8    4    5 ar
   9    4   14 1
  10    5    6 ar
  11    5   21 1
  12    6    7 1
  13    7    8 1
  14    7    9 1
  15    7   10 1
  16    8   22 1
  17    8   23 1
  18    8   24 1
  19    9   25 1
  20    9   26 1
  21    9   27 1
  22   10   28 1
  23   10   29 1
  24   10   30 1
  25   11   12 1
  26   11   15 1
  27   12   13 1
  28   12   17 2
  29   13   14 1
  30   13   31 1
  31   13   32 1
  32   15   16 2
  33   16   17 1
  34   16   18 1
  35   18   33 1
  36   18   34 1
  37   18   35 1

#	End of record

