#	Name: ASD08170791
#	Creating user name:	WinNT
#	Creation time:	15. 06. 2019 21:17

#	Modifying user name:	WinNT
#	Modification time:	15. 06. 2019 21:17

#	Program:	/corina/corina34_cracker 3.40 0067  02.08.2006

@<TRIPOS>MOLECULE
ASD08170791
  86   91    0    0    0
SMALL
NO_CHARGES


@<TRIPOS>ATOM
   1 C1            -0.3919     1.1998     1.1457 C.2     
   2 N2            -0.3204    -0.0463     1.6543 N.am    
   3 C3             0.7437    -0.8754     1.3159 C.2     
   4 S4             0.9781    -2.4776     1.8751 S.3     
   5 C5             2.4627    -2.5700     0.9270 C.2     
   6 C6             3.3887    -3.7557     0.8388 C.3     
   7 C7             6.4553    -4.7583     2.9403 C.3     
   8 C8             7.3812    -5.9440     2.8521 C.2     
   9 S9             7.1751    -7.4888     3.6783 S.3     
  10 C10            8.6270    -8.0452     2.9590 C.2     
  11 N11            1.7215    -0.5653     0.5192 N.2     
  12 N12            2.6138    -1.4359     0.3199 N.2     
  13 N13            8.4684    -6.0138     2.1515 N.2     
  14 N14            9.1118    -7.0983     2.2137 N.2     
  15 O15            0.4716     1.5980     0.3929 O.2     
  16 C16           -1.5482     2.0960     1.5074 C.3     
  17 N17            9.1929    -9.3021     3.1430 N.am    
  18 C18           10.3438    -9.6210     2.5183 C.2     
  19 C19           10.9570   -10.9831     2.7177 C.3     
  20 O20           10.8859    -8.8118     1.7957 O.2     
  21 C21            4.4519    -3.6551     1.9343 C.3     
  22 C22            5.3920    -4.8589     1.8447 C.3     
  23 N23           -1.1830     3.4951     1.2482 N.3     
  24 C24           10.3913   -11.9422     1.7023 C.ar    
  25 N25           12.4135   -10.8938     2.5485 N.3     
  26 C26           13.0489   -12.2026     2.7555 C.3     
  27 C27           14.5521   -12.0842     2.4930 C.3     
  28 N28           15.1261   -11.0750     3.3939 N.3     
  29 C29           14.4907    -9.7662     3.1870 C.3     
  30 C30           12.9875    -9.8846     3.4495 C.3     
  31 C31           10.7924   -11.8667     0.3816 C.ar    
  32 C32           10.2734   -12.7465    -0.5498 C.ar    
  33 C33            9.3536   -13.7021    -0.1604 C.ar    
  34 C34            8.9531   -13.7782     1.1605 C.ar    
  35 C35            9.4753   -12.9012     2.0927 C.ar    
  36 C36           -2.7489     1.7277     0.6745 C.ar    
  37 C37           -3.7479     0.9385     1.2131 C.ar    
  38 C38           -2.8541     2.1838    -0.6262 C.ar    
  39 C39           -3.9555     1.8459    -1.3901 C.ar    
  40 C40           -4.9515     1.0517    -0.8535 C.ar    
  41 C41           -4.8493     0.6006     0.4492 C.ar    
  42 C42           -0.0894     3.9260     2.1302 C.3     
  43 C43            0.3139     5.3592     1.7755 C.3     
  44 N44           -0.8519     6.2426     1.9167 N.3     
  45 C45           -1.9455     5.8117     1.0347 C.3     
  46 C46           -2.3489     4.3785     1.3894 C.3     
  47 H47           -1.0111    -0.3648     2.2563 H       
  48 H48            2.8166    -4.6741     0.9709 H       
  49 H49            3.8730    -3.7667    -0.1377 H       
  50 H50            5.9710    -4.7474     3.9167 H       
  51 H51            7.0274    -3.8399     2.8081 H       
  52 H52           -1.7870     1.9726     2.5637 H       
  53 H53            8.7593    -9.9494     3.7210 H       
  54 H54           10.7291   -11.3407     3.7218 H       
  55 H55            5.0240    -2.7368     1.8022 H       
  56 H56            3.9677    -3.6442     2.9107 H       
  57 H57            5.8763    -4.8699     0.8683 H       
  58 H58            4.8200    -5.7773     1.9769 H       
  59 H59           12.8837   -12.5288     3.7824 H       
  60 H60           12.6160   -12.9298     2.0685 H       
  61 H61           15.0299   -13.0471     2.6741 H       
  62 H62           14.7181   -11.7844     1.4583 H       
  63 H63           15.0504   -11.3654     4.3573 H       
  64 H64           14.9236    -9.0390     3.8739 H       
  65 H65           14.6559    -9.4400     2.1601 H       
  66 H66           12.5097    -8.9217     3.2684 H       
  67 H67           12.8215   -10.1844     4.4842 H       
  68 H68           11.5111   -11.1202     0.0774 H       
  69 H69           10.5863   -12.6871    -1.5817 H       
  70 H70            8.9475   -14.3890    -0.8882 H       
  71 H71            8.2341   -14.5245     1.4647 H       
  72 H72            9.1625   -12.9606     3.1247 H       
  73 H73           -3.6677     0.5856     2.2307 H       
  74 H74           -2.0759     2.8043    -1.0454 H       
  75 H75           -4.0380     2.2028    -2.4061 H       
  76 H76           -5.8122     0.7880    -1.4503 H       
  77 H77           -5.6275    -0.0199     0.8684 H       
  78 H78           -0.4223     3.8881     3.1674 H       
  79 H79            0.7665     3.2641     1.9982 H       
  80 H80            1.1053     5.6912     2.4475 H       
  81 H81            0.6725     5.3920     0.7467 H       
  82 H82           -1.1580     6.2866     2.8772 H       
  83 H83           -2.8015     6.4736     1.1667 H       
  84 H84           -1.6126     5.8496    -0.0025 H       
  85 H85           -3.1402     4.0466     0.7174 H       
  86 H86           -2.7075     4.3457     2.4183 H       
@<TRIPOS>BOND
   1    1    2 am
   2    1   15 2
   3    1   16 1
   4    2    3 1
   5    2   47 1
   6    3    4 1
   7    3   11 2
   8    4    5 1
   9    5    6 1
  10    5   12 2
  11    6   21 1
  12    6   48 1
  13    6   49 1
  14    7    8 1
  15    7   22 1
  16    7   50 1
  17    7   51 1
  18    8    9 1
  19    8   13 2
  20    9   10 1
  21   10   17 1
  22   10   14 2
  23   11   12 1
  24   13   14 1
  25   16   23 1
  26   16   36 1
  27   16   52 1
  28   17   18 am
  29   17   53 1
  30   18   19 1
  31   18   20 2
  32   19   24 1
  33   19   25 1
  34   19   54 1
  35   21   22 1
  36   21   55 1
  37   21   56 1
  38   22   57 1
  39   22   58 1
  40   23   42 1
  41   23   46 1
  42   24   31 ar
  43   24   35 ar
  44   25   26 1
  45   25   30 1
  46   26   27 1
  47   26   59 1
  48   26   60 1
  49   27   28 1
  50   27   61 1
  51   27   62 1
  52   28   29 1
  53   28   63 1
  54   29   30 1
  55   29   64 1
  56   29   65 1
  57   30   66 1
  58   30   67 1
  59   31   32 ar
  60   31   68 1
  61   32   33 ar
  62   32   69 1
  63   33   34 ar
  64   33   70 1
  65   34   35 ar
  66   34   71 1
  67   35   72 1
  68   36   37 ar
  69   36   38 ar
  70   37   41 ar
  71   37   73 1
  72   38   39 ar
  73   38   74 1
  74   39   40 ar
  75   39   75 1
  76   40   41 ar
  77   40   76 1
  78   41   77 1
  79   42   43 1
  80   42   78 1
  81   42   79 1
  82   43   44 1
  83   43   80 1
  84   43   81 1
  85   44   45 1
  86   44   82 1
  87   45   46 1
  88   45   83 1
  89   45   84 1
  90   46   85 1
  91   46   86 1

#	End of record

