#	Name: ASD03730848
#	Creating user name:	WinNT
#	Creation time:	15. 06. 2019 20:44

#	Modifying user name:	WinNT
#	Modification time:	15. 06. 2019 20:44

#	Program:	/corina/corina34_cracker 3.40 0067  02.08.2006

@<TRIPOS>MOLECULE
ASD03730848
  59   65    0    0    0
SMALL
NO_CHARGES


@<TRIPOS>ATOM
   1 C1             1.5573    -1.2864    -2.4137 C.2     
   2 C2             0.7041    -1.1969    -1.2096 C.ar    
   3 C3             1.2056    -0.6325    -0.0354 C.ar    
   4 C4             0.4041    -0.5515     1.0843 C.ar    
   5 C5            -0.8942    -1.0286     1.0455 C.ar    
   6 C6            -1.3974    -1.5891    -0.1148 C.ar    
   7 C7            -0.6081    -1.6709    -1.2436 C.ar    
   8 O8             2.6651    -0.7862    -2.4121 O.2     
   9 N9             1.1089    -1.9275    -3.5111 N.am    
  10 C10            1.9544    -2.0163    -4.7043 C.3     
  11 C11            1.2251    -2.7774    -5.7812 C.2     
  12 C12            0.4275    -2.2333    -6.7016 C.2     
  13 C13           -0.1348    -3.1325    -7.5912 C.2     
  14 C14            0.2061    -4.4068    -7.3932 C.2     
  15 S15            1.3014    -4.5181    -6.0215 S.3     
  16 C16            2.6196    -0.1133     0.0088 C.3     
  17 O17            0.0928    -1.7703     6.5327 O.3     
  18 C18            0.0950    -1.6641     7.9686 C.3     
  19 O19            1.4935    -1.6023     8.3051 O.3     
  20 C20            2.1096    -1.0652     7.2111 C.ar    
  21 C21            1.2482    -1.1698     6.1214 C.ar    
  22 C22            3.3557    -0.4852     7.0546 C.ar    
  23 C23            3.7588    -0.0048     5.8123 C.ar    
  24 C24            2.8928    -0.1223     4.7294 C.ar    
  25 C25            1.6474    -0.6946     4.8835 C.ar    
  26 O26            4.9220     0.6087     5.4504 O.3     
  27 C27            3.6136     0.4527     3.5395 C.3     
  28 C28            5.0688     0.5419     4.0188 C.3     
  29 N29            2.9248     0.3575     1.3621 N.am    
  30 C30            3.4778    -0.4129     2.3201 C.2     
  31 C31            3.0735     1.7932     3.1379 C.ar    
  32 C32            2.9244     2.9944     3.7945 C.ar    
  33 C33            2.3780     4.0812     3.1354 C.ar    
  34 C34            1.9815     3.9580     1.8161 C.ar    
  35 C35            2.1280     2.7567     1.1544 C.ar    
  36 C36            2.6774     1.6574     1.8099 C.ar    
  37 O37            3.8025    -1.5770     2.2171 O.2     
  38 H38            0.7909    -0.1151     1.9933 H       
  39 H39           -1.5174    -0.9635     1.9252 H       
  40 H40           -2.4115    -1.9596    -0.1385 H       
  41 H41           -1.0034    -2.1050    -2.1501 H       
  42 H42            0.2264    -2.3301    -3.5110 H       
  43 H43            2.1853    -1.0127    -5.0615 H       
  44 H44            2.8801    -2.5354    -4.4558 H       
  45 H45            0.2348    -1.1717    -6.7489 H       
  46 H46           -0.7995    -2.8256    -8.3852 H       
  47 H47           -0.1352    -5.2420    -7.9867 H       
  48 H48            3.3090    -0.9131    -0.2617 H       
  49 H49            2.7260     0.7118    -0.6955 H       
  50 H50           -0.4159    -0.7551     8.2861 H       
  51 H51           -0.3687    -2.5421     8.4182 H       
  52 H52            4.0201    -0.4047     7.9022 H       
  53 H53            0.9819    -0.7725     4.0364 H       
  54 H54            5.5478     1.4433     3.6364 H       
  55 H55            5.6274    -0.3477     3.7280 H       
  56 H56            3.2345     3.0882     4.8247 H       
  57 H57            2.2617     5.0237     3.6497 H       
  58 H58            1.5549     4.8064     1.3017 H       
  59 H59            1.8155     2.6681     0.1244 H       
@<TRIPOS>BOND
   1    1    2 1
   2    1    8 2
   3    1    9 am
   4    2    3 ar
   5    2    7 ar
   6    3    4 ar
   7    3   16 1
   8    4    5 ar
   9    4   38 1
  10    5    6 ar
  11    5   39 1
  12    6    7 ar
  13    6   40 1
  14    7   41 1
  15    9   10 1
  16    9   42 1
  17   10   11 1
  18   10   43 1
  19   10   44 1
  20   11   12 2
  21   11   15 1
  22   12   13 1
  23   12   45 1
  24   13   14 2
  25   13   46 1
  26   14   15 1
  27   14   47 1
  28   16   29 1
  29   16   48 1
  30   16   49 1
  31   17   18 1
  32   17   21 1
  33   18   19 1
  34   18   50 1
  35   18   51 1
  36   19   20 1
  37   20   21 ar
  38   20   22 ar
  39   21   25 ar
  40   22   23 ar
  41   22   52 1
  42   23   24 ar
  43   23   26 1
  44   24   25 ar
  45   24   27 1
  46   25   53 1
  47   26   28 1
  48   27   28 1
  49   27   30 1
  50   27   31 1
  51   28   54 1
  52   28   55 1
  53   29   30 am
  54   29   36 1
  55   30   37 2
  56   31   32 ar
  57   31   36 ar
  58   32   33 ar
  59   32   56 1
  60   33   34 ar
  61   33   57 1
  62   34   35 ar
  63   34   58 1
  64   35   36 ar
  65   35   59 1

#	End of record

