#	Name: ASD04880074
#	Creating user name:	WinNT
#	Creation time:	15. 06. 2019 20:52

#	Modifying user name:	WinNT
#	Modification time:	15. 06. 2019 20:52

#	Program:	/corina/corina34_cracker 3.40 0067  02.08.2006

@<TRIPOS>MOLECULE
ASD04880074
  44   46    0    0    0
SMALL
NO_CHARGES


@<TRIPOS>ATOM
   1 C1            -0.0144     1.2119     0.0087 C.2     
   2 O2             0.0282    -0.0033     0.0295 O.2     
   3 N3             1.1277     1.9254    -0.0464 N.am    
   4 N4             1.2129     3.3091    -0.1865 N.2     
   5 C5             2.4189     3.7621    -0.2140 C.2     
   6 C6             3.3930     2.6133    -0.0816 C.3     
   7 C7             2.4882     1.3710     0.0377 C.3     
   8 C8             2.7914     5.1816    -0.3537 C.ar    
   9 C9             1.7985     6.1585    -0.4688 C.ar    
  10 C10            2.1534     7.4876    -0.5995 C.ar    
  11 C11            3.4985     7.8514    -0.6168 C.ar    
  12 C12            4.4841     6.8823    -0.5031 C.ar    
  13 C13            4.1376     5.5542    -0.3655 C.ar    
  14 O14            3.8455     9.1594    -0.7459 O.3     
  15 C15            5.2420     9.4621    -0.7562 C.3     
  16 O16            1.1898     8.4407    -0.7118 O.3     
  17 C17           -0.1682     7.9964    -0.6869 C.3     
  18 C18           -1.3175     1.9055     0.0377 C.ar    
  19 C19           -2.5054     1.1727    -0.0465 C.ar    
  20 C20           -3.7231     1.8317    -0.0186 C.ar    
  21 C21           -3.7630     3.2110     0.0924 C.ar    
  22 C22           -2.5891     3.9395     0.1755 C.ar    
  23 C23           -1.3697     3.2963     0.1551 C.ar    
  24 C24           -5.0910     3.9228     0.1223 C.3     
  25 F25           -4.8733     1.1278    -0.1001 F       
  26 F26           -2.4653    -0.1734    -0.1552 F       
  27 H27            4.0270     2.5457    -0.9657 H       
  28 H28            3.9993     2.7278     0.8170 H       
  29 H29            2.6410     0.8733     0.9953 H       
  30 H30            2.6737     0.6831    -0.7872 H       
  31 H31            0.7564     5.8752    -0.4560 H       
  32 H32            5.5254     7.1686    -0.5173 H       
  33 H33            4.9071     4.8022    -0.2723 H       
  34 H34            5.6925     9.1306     0.1793 H       
  35 H35            5.7189     8.9488    -1.5911 H       
  36 H36            5.3797    10.5379    -0.8646 H       
  37 H37           -0.8331     8.8546    -0.7849 H       
  38 H38           -0.3402     7.3072    -1.5137 H       
  39 H39           -0.3671     7.4886     0.2568 H       
  40 H40           -2.6285     5.0154     0.2614 H       
  41 H41           -0.4558     3.8676     0.2254 H       
  42 H42           -5.4325     4.0115     1.1536 H       
  43 H43           -4.9801     4.9171    -0.3105 H       
  44 H44           -5.8207     3.3548    -0.4546 H       
@<TRIPOS>BOND
   1    1    2 2
   2    1    3 am
   3    1   18 1
   4    3    4 1
   5    3    7 1
   6    4    5 2
   7    5    6 1
   8    5    8 1
   9    6    7 1
  10    6   27 1
  11    6   28 1
  12    7   29 1
  13    7   30 1
  14    8    9 ar
  15    8   13 ar
  16    9   10 ar
  17    9   31 1
  18   10   11 ar
  19   10   16 1
  20   11   12 ar
  21   11   14 1
  22   12   13 ar
  23   12   32 1
  24   13   33 1
  25   14   15 1
  26   15   34 1
  27   15   35 1
  28   15   36 1
  29   16   17 1
  30   17   37 1
  31   17   38 1
  32   17   39 1
  33   18   19 ar
  34   18   23 ar
  35   19   20 ar
  36   19   26 1
  37   20   21 ar
  38   20   25 1
  39   21   22 ar
  40   21   24 1
  41   22   23 ar
  42   22   40 1
  43   23   41 1
  44   24   42 1
  45   24   43 1
  46   24   44 1

#	End of record

