#	Name: ASD01209070
#	Creating user name:	WinNT
#	Creation time:	15. 06. 2019 19:10

#	Modifying user name:	WinNT
#	Modification time:	15. 06. 2019 19:10

#	Program:	/corina/corina34_cracker 3.40 0067  02.08.2006

@<TRIPOS>MOLECULE
ASD01209070
  54   55    0    0    0
SMALL
NO_CHARGES


@<TRIPOS>ATOM
   1 C1            -0.0846     1.4342     0.0264 C.ar    
   2 C2             0.0179     0.0511    -0.0142 C.ar    
   3 C3            -1.1248    -0.7361     0.0258 C.ar    
   4 C4            -2.3737    -0.1442     0.1065 C.ar    
   5 C5            -2.4826     1.2490     0.1481 C.ar    
   6 C6            -1.3283     2.0365     0.1133 C.ar    
   7 O7             1.0382     2.1990    -0.0136 O.3     
   8 C8             0.8566     3.6142    -0.0928 C.3     
   9 C9             2.0905     4.2515    -0.7349 C.3     
  10 C10           -3.8077     1.8840     0.2338 C.2     
  11 O11           -3.8997     3.0925     0.2698 O.2     
  12 C12           -5.0501     1.0322     0.2768 C.3     
  13 C13           -5.3953     0.7067     1.7314 C.3     
  14 C14           -6.2123     1.7925    -0.3652 C.3     
  15 O15           -1.0173    -2.0902    -0.0147 O.3     
  16 C16           -1.4855    -2.7346    -1.1156 C.ar    
  17 C17           -1.5132    -4.1215    -1.1499 C.ar    
  18 C18           -1.9901    -4.7741    -2.2701 C.ar    
  19 C19           -2.4391    -4.0466    -3.3568 C.ar    
  20 C20           -2.4125    -2.6645    -3.3253 C.ar    
  21 C21           -1.9420    -2.0069    -2.2053 C.ar    
  22 S22           -3.0457    -4.8823    -4.7845 S.o2    
  23 O23           -2.8265    -3.9647    -5.8472 O.2     
  24 O24           -2.3899    -6.1426    -4.7580 O.2     
  25 C25            0.6625     4.1831     1.3142 C.3     
  26 O26            3.2221     4.0627     0.1172 O.3     
  27 C27            4.4335     4.6236    -0.3925 C.3     
  28 C28           -4.8214    -5.0818    -4.4719 C.3     
  29 H29            0.9903    -0.4147    -0.0774 H       
  30 H30           -3.2621    -0.7575     0.1368 H       
  31 H31           -1.4069     3.1132     0.1456 H       
  32 H32           -0.0226     3.8344    -0.6982 H       
  33 H33            2.2806     3.7829    -1.7005 H       
  34 H34            1.9164     5.3181    -0.8766 H       
  35 H35           -4.8750     0.1062    -0.2709 H       
  36 H36           -6.2939     0.0906     1.7625 H       
  37 H37           -4.5673     0.1651     2.1889 H       
  38 H38           -5.5704     1.6327     2.2792 H       
  39 H39           -5.9664     2.0243    -1.4015 H       
  40 H40           -7.1109     1.1763    -0.3341 H       
  41 H41           -6.3875     2.7184     0.1825 H       
  42 H42           -1.1620    -4.6902    -0.3016 H       
  43 H43           -2.0119    -5.8536    -2.2972 H       
  44 H44           -2.7638    -2.0986    -4.1754 H       
  45 H45           -1.9217    -0.9274    -2.1811 H       
  46 H46            1.5418     3.9629     1.9196 H       
  47 H47            0.5241     5.2626     1.2537 H       
  48 H48           -0.2165     3.7291     1.7716 H       
  49 H49            4.6722     4.1627    -1.3511 H       
  50 H50            4.3080     5.6979    -0.5272 H       
  51 H51            5.2444     4.4380     0.3118 H       
  52 H52           -5.2810    -4.1013    -4.3484 H       
  53 H53           -5.2831    -5.5960    -5.3149 H       
  54 H54           -4.9669    -5.6682    -3.5647 H       
@<TRIPOS>BOND
   1    1    2 ar
   2    1    7 1
   3    1    6 ar
   4    2    3 ar
   5    2   29 1
   6    3    4 ar
   7    3   15 1
   8    4    5 ar
   9    4   30 1
  10    5    6 ar
  11    5   10 1
  12    6   31 1
  13    7    8 1
  14    8    9 1
  15    8   25 1
  16    8   32 1
  17    9   26 1
  18    9   33 1
  19    9   34 1
  20   10   11 2
  21   10   12 1
  22   12   13 1
  23   12   14 1
  24   12   35 1
  25   13   36 1
  26   13   37 1
  27   13   38 1
  28   14   39 1
  29   14   40 1
  30   14   41 1
  31   15   16 1
  32   16   17 ar
  33   16   21 ar
  34   17   18 ar
  35   17   42 1
  36   18   19 ar
  37   18   43 1
  38   19   20 ar
  39   19   22 1
  40   20   21 ar
  41   20   44 1
  42   21   45 1
  43   22   23 2
  44   22   24 2
  45   22   28 1
  46   25   46 1
  47   25   47 1
  48   25   48 1
  49   26   27 1
  50   27   49 1
  51   27   50 1
  52   27   51 1
  53   28   52 1
  54   28   53 1
  55   28   54 1

#	End of record

