#	Name: ASD01890204
#	Creating user name:	WinNT
#	Creation time:	15. 06. 2019 19:50

#	Modifying user name:	WinNT
#	Modification time:	15. 06. 2019 19:50

#	Program:	/corina/corina34_cracker 3.40 0067  02.08.2006

@<TRIPOS>MOLECULE
ASD01890204
  34   35    0    0    0
SMALL
NO_CHARGES


@<TRIPOS>ATOM
   1 C1            -0.0178     1.4579     0.0101 C.2     
   2 C2             0.0021    -0.0041     0.0020 C.2     
   3 C3             1.1809    -0.6635    -0.0128 C.2     
   4 O4             1.0280     2.0808     0.0034 O.2     
   5 C5            -1.3086     2.1800     0.0201 C.ar    
   6 C6            -1.3311     3.5759     0.0278 C.ar    
   7 C7            -2.5384     4.2431     0.0372 C.ar    
   8 C8            -3.7254     3.5319     0.0395 C.ar    
   9 C9            -3.7102     2.1482     0.0319 C.ar    
  10 C10           -2.5099     1.4686     0.0162 C.ar    
  11 C11            1.2009    -2.1343    -0.0209 C.ar    
  12 C12            2.4197    -2.8210    -0.0362 C.ar    
  13 C13            2.4298    -4.1997    -0.0437 C.ar    
  14 C14            1.2384    -4.9043    -0.0367 C.ar    
  15 C15            0.0284    -4.2323    -0.0220 C.ar    
  16 C16            0.0012    -2.8540    -0.0075 C.ar    
  17 C17            1.2589    -6.4111    -0.0455 C.3     
  18 C18            1.2792    -6.9293     1.3939 C.3     
  19 H19           -0.9258    -0.5567     0.0079 H       
  20 H20            2.1088    -0.1108    -0.0187 H       
  21 H21           -0.4053     4.1321     0.0268 H       
  22 H22           -2.5572     5.3229     0.0432 H       
  23 H23           -4.6680     4.0591     0.0476 H       
  24 H24           -4.6403     1.5991     0.0337 H       
  25 H25           -2.4994     0.3887     0.0054 H       
  26 H26            3.3501    -2.2726    -0.0425 H       
  27 H27            3.3699    -4.7313    -0.0556 H       
  28 H28           -0.8969    -4.7893    -0.0169 H       
  29 H29           -0.9437    -2.3311     0.0092 H       
  30 H30            0.3691    -6.7836    -0.5532 H       
  31 H31            2.1488    -6.7594    -0.5697 H       
  32 H32            1.2940    -8.0192     1.3875 H       
  33 H33            2.1690    -6.5569     1.9016 H       
  34 H34            0.3893    -6.5811     1.9181 H       
@<TRIPOS>BOND
   1    1    2 1
   2    1    4 2
   3    1    5 1
   4    2    3 2
   5    2   19 1
   6    3   11 1
   7    3   20 1
   8    5    6 ar
   9    5   10 ar
  10    6    7 ar
  11    6   21 1
  12    7    8 ar
  13    7   22 1
  14    8    9 ar
  15    8   23 1
  16    9   10 ar
  17    9   24 1
  18   10   25 1
  19   11   12 ar
  20   11   16 ar
  21   12   13 ar
  22   12   26 1
  23   13   14 ar
  24   13   27 1
  25   14   15 ar
  26   14   17 1
  27   15   16 ar
  28   15   28 1
  29   16   29 1
  30   17   18 1
  31   17   30 1
  32   17   31 1
  33   18   32 1
  34   18   33 1
  35   18   34 1

#	End of record

