#	Name: ASD03540186
#	Creating user name:	WinNT
#	Creation time:	15. 06. 2019 20:42

#	Modifying user name:	WinNT
#	Modification time:	15. 06. 2019 20:42

#	Program:	/corina/corina34_cracker 3.40 0067  02.08.2006

@<TRIPOS>MOLECULE
ASD03540186
  39   42    0    0    0
SMALL
NO_CHARGES


@<TRIPOS>ATOM
   1 C1            -0.0161     1.3365     0.0094 C.2     
   2 N2             0.0021    -0.0041     0.0020 N.am    
   3 C3             1.1931    -0.7075    -0.0132 C.2     
   4 C4             2.3928    -0.0051    -0.0209 C.2     
   5 C5             2.3194     1.4734    -0.0115 C.2     
   6 N6             1.1110     2.0661     0.0025 N.am    
   7 C7             3.5129    -0.8381    -0.0361 C.2     
   8 C8             3.2256    -2.1516    -0.0404 C.2     
   9 S9             1.4874    -2.3902    -0.0250 S.3     
  10 C10            4.2183    -3.2259    -0.0565 C.2     
  11 O11            5.4048    -2.9577    -0.0671 O.2     
  12 O12            3.8179    -4.5143    -0.0595 O.3     
  13 O13            3.3358     2.1426    -0.0175 O.2     
  14 O14           -1.0880     1.9101     0.0175 O.2     
  15 C15           -1.2652    -0.7390     0.0107 C.3     
  16 C16            1.0243     3.5285     0.0113 C.3     
  17 O17           -1.2768     4.8448     4.2399 O.3     
  18 C18           -0.8693     5.7056     5.3168 C.3     
  19 C19            0.6446     5.4105     5.4375 C.3     
  20 C20            0.9827     4.9331     4.0385 C.ar    
  21 C21           -0.2190     4.6313     3.4101 C.ar    
  22 C22            2.1816     4.7754     3.3797 C.ar    
  23 C23            2.1980     4.3186     2.0735 C.ar    
  24 C24            1.0082     4.0223     1.4350 C.ar    
  25 C25           -0.1940     4.1766     2.0942 C.ar    
  26 H26            4.5244    -0.4597    -0.0438 H       
  27 H27            4.5448    -5.1520    -0.0704 H       
  28 H28           -2.0950    -0.0322     0.0228 H       
  29 H29           -1.3307    -1.3609    -0.8820 H       
  30 H30           -1.3130    -1.3705     0.8978 H       
  31 H31            1.8863     3.9467    -0.5086 H       
  32 H32            0.1095     3.8412    -0.4921 H       
  33 H33           -1.0397     6.7514     5.0608 H       
  34 H34           -1.3886     5.4431     6.2385 H       
  35 H35            1.1994     6.3155     5.6850 H       
  36 H36            0.8315     4.6274     6.1722 H       
  37 H37            3.1087     5.0083     3.8823 H       
  38 H38            3.1370     4.1937     1.5548 H       
  39 H39           -1.1190     3.9426     1.5882 H       
@<TRIPOS>BOND
   1    1    2 am
   2    1    6 am
   3    1   14 2
   4    2    3 1
   5    2   15 1
   6    3    4 2
   7    3    9 1
   8    4    5 1
   9    4    7 1
  10    5    6 am
  11    5   13 2
  12    6   16 1
  13    7    8 2
  14    7   26 1
  15    8    9 1
  16    8   10 1
  17   10   11 2
  18   10   12 1
  19   12   27 1
  20   15   28 1
  21   15   29 1
  22   15   30 1
  23   16   24 1
  24   16   31 1
  25   16   32 1
  26   17   18 1
  27   17   21 1
  28   18   19 1
  29   18   33 1
  30   18   34 1
  31   19   20 1
  32   19   35 1
  33   19   36 1
  34   20   21 ar
  35   20   22 ar
  36   21   25 ar
  37   22   23 ar
  38   22   37 1
  39   23   24 ar
  40   23   38 1
  41   24   25 ar
  42   25   39 1

#	End of record

