#	Name: ASD01814526
#	Creating user name:	WinNT
#	Creation time:	15. 06. 2019 19:32

#	Modifying user name:	WinNT
#	Modification time:	15. 06. 2019 19:32

#	Program:	/corina/corina34_cracker 3.40 0067  02.08.2006

@<TRIPOS>MOLECULE
ASD01814526
  27   28    0    0    0
SMALL
NO_CHARGES


@<TRIPOS>ATOM
   1 C1            -0.0167     1.3839     0.0097 C.ar    
   2 C2             0.0021    -0.0041     0.0020 C.ar    
   3 C3            -1.1856    -0.7101     0.0100 C.ar    
   4 C4            -2.3929    -0.0366     0.0252 C.ar    
   5 C5            -2.4172     1.3463     0.0324 C.ar    
   6 C6            -1.2328     2.0596     0.0307 C.ar    
   7 F7            -1.2563     3.4104     0.0382 F       
   8 N8             1.1851     2.1021     0.0020 N.am    
   9 C9             1.8782     2.4156    -1.1120 C.2     
  10 N10            1.8162     2.5902     1.1422 N.2     
  11 C11            2.9096     3.2194     0.8794 C.2     
  12 C12            3.0900     3.1854    -0.6239 C.3     
  13 O13            1.5931     2.1405    -2.2588 O.2     
  14 O14            3.7388     3.8025     1.7769 O.3     
  15 C15            4.4189     4.4251     4.0108 C.3     
  16 C16            3.3693     3.7139     3.1545 C.3     
  17 H17            0.9443    -0.5317    -0.0105 H       
  18 H18           -1.1708    -1.7900     0.0041 H       
  19 H19           -3.3193    -0.5917     0.0311 H       
  20 H20           -3.3621     1.8693     0.0435 H       
  21 H21            4.0090     2.6623    -0.8880 H       
  22 H22            3.0919     4.1959    -1.0327 H       
  23 H23            5.3895     3.9514     3.8638 H       
  24 H24            4.4780     5.4732     3.7172 H       
  25 H25            4.1371     4.3575     5.0616 H       
  26 H26            2.3987     4.1876     3.3015 H       
  27 H27            3.3103     2.6658     3.4481 H       
@<TRIPOS>BOND
   1    1    2 ar
   2    1    8 1
   3    1    6 ar
   4    2    3 ar
   5    2   17 1
   6    3    4 ar
   7    3   18 1
   8    4    5 ar
   9    4   19 1
  10    5    6 ar
  11    5   20 1
  12    6    7 1
  13    8    9 am
  14    8   10 1
  15    9   13 2
  16    9   12 1
  17   10   11 2
  18   11   12 1
  19   11   14 1
  20   12   21 1
  21   12   22 1
  22   14   16 1
  23   15   16 1
  24   15   23 1
  25   15   24 1
  26   15   25 1
  27   16   26 1
  28   16   27 1

#	End of record

