#	Name: ASD01900769
#	Creating user name:	WinNT
#	Creation time:	15. 06. 2019 19:52

#	Modifying user name:	WinNT
#	Modification time:	15. 06. 2019 19:52

#	Program:	/corina/corina34_cracker 3.40 0067  02.08.2006

@<TRIPOS>MOLECULE
ASD01900769
  50   54    0    0    0
SMALL
NO_CHARGES


@<TRIPOS>ATOM
   1 C1             0.1863     1.3286    -0.5436 C.ar    
   2 C2             0.2123    -0.0421    -0.3183 C.ar    
   3 C3            -0.9574    -0.7743    -0.3022 C.ar    
   4 C4            -2.1763    -0.1433    -0.5121 C.ar    
   5 C5            -2.2000     1.2386    -0.7431 C.ar    
   6 O6            -3.3277    -0.8498    -0.4871 O.3     
   7 C7            -4.4768    -0.3464    -0.9707 C.2     
   8 C8            -4.6482     0.9753    -1.2275 C.2     
   9 C9            -3.5164     1.8850    -0.9779 C.2     
  10 C10           -5.5952    -1.2670    -1.2330 C.2     
  11 N11           -6.7668    -0.7900    -1.7208 N.2     
  12 C12           -7.7776    -1.5676    -1.9659 C.2     
  13 N13           -7.7128    -2.9157    -1.7436 N.pl3   
  14 C14           -6.5451    -3.4673    -1.2462 C.2     
  15 C15           -5.4500    -2.6221    -0.9872 C.2     
  16 C16           -1.0222     1.9738    -0.7509 C.ar    
  17 C17           -8.6163    -3.9198    -1.9169 C.2     
  18 C18           -8.0505    -5.0930    -1.5420 C.2     
  19 C19           -6.7453    -4.8288    -1.1163 C.2     
  20 O20            1.3463     2.0378    -0.5551 O.3     
  21 C21            2.5545     1.3091    -0.3284 C.3     
  22 C22            3.7276     2.2538    -0.3770 C.2     
  23 N23            4.9776     1.7862    -0.1890 N.am    
  24 C24            6.0748     2.6446    -0.3304 C.ar    
  25 O25            3.5468     3.4349    -0.5854 O.2     
  26 C26            5.9737     3.9726     0.0622 C.ar    
  27 C27            7.0572     4.8176    -0.0777 C.ar    
  28 C28            8.2439     4.3411    -0.6091 C.ar    
  29 C29            8.3468     3.0170    -1.0012 C.ar    
  30 C30            7.2673     2.1676    -0.8581 C.ar    
  31 F31            9.3025     5.1693    -0.7455 F       
  32 N32           -3.6629     3.1887    -0.9634 N.2     
  33 O33           -2.5831     4.0181    -0.5746 O.3     
  34 H34            1.1569    -0.5394    -0.1544 H       
  35 H35           -0.9246    -1.8394    -0.1265 H       
  36 H36           -5.5883     1.3499    -1.6048 H       
  37 H37           -8.6904    -1.1400    -2.3538 H       
  38 H38           -4.5234    -3.0188    -0.5992 H       
  39 H39           -1.0470     3.0392    -0.9262 H       
  40 H40           -9.6219    -3.8005    -2.2924 H       
  41 H41           -8.5251    -6.0628    -1.5678 H       
  42 H42           -6.0292    -5.5516    -0.7541 H       
  43 H43            2.5126     0.8319     0.6507 H       
  44 H44            2.6693     0.5471    -1.0993 H       
  45 H45            5.1172     0.8551     0.0442 H       
  46 H46            5.0483     4.3447     0.4763 H       
  47 H47            6.9789     5.8506     0.2272 H       
  48 H48            9.2731     2.6475    -1.4158 H       
  49 H49            7.3479     1.1350    -1.1642 H       
  50 H50           -2.7860     4.9634    -0.5954 H       
@<TRIPOS>BOND
   1    1    2 ar
   2    1   20 1
   3    1   16 ar
   4    2    3 ar
   5    2   34 1
   6    3    4 ar
   7    3   35 1
   8    4    5 ar
   9    4    6 1
  10    5   16 ar
  11    5    9 1
  12    6    7 1
  13    7    8 2
  14    7   10 1
  15    8    9 1
  16    8   36 1
  17    9   32 2
  18   10   11 1
  19   10   15 2
  20   11   12 2
  21   12   13 1
  22   12   37 1
  23   13   14 1
  24   13   17 1
  25   14   15 1
  26   14   19 2
  27   15   38 1
  28   16   39 1
  29   17   18 2
  30   17   40 1
  31   18   19 1
  32   18   41 1
  33   19   42 1
  34   20   21 1
  35   21   22 1
  36   21   43 1
  37   21   44 1
  38   22   23 am
  39   22   25 2
  40   23   24 1
  41   23   45 1
  42   24   26 ar
  43   24   30 ar
  44   26   27 ar
  45   26   46 1
  46   27   28 ar
  47   27   47 1
  48   28   29 ar
  49   28   31 1
  50   29   30 ar
  51   29   48 1
  52   30   49 1
  53   32   33 1
  54   33   50 1

#	End of record

