#	Name: ASD00960070
#	Creating user name:	WinNT
#	Creation time:	15. 06. 2019 18:53

#	Modifying user name:	WinNT
#	Modification time:	15. 06. 2019 18:53

#	Program:	/corina/corina34_cracker 3.40 0067  02.08.2006

@<TRIPOS>MOLECULE
ASD00960070
  46   48    0    0    0
SMALL
NO_CHARGES


@<TRIPOS>ATOM
   1 F1             1.3189    -0.4764    -0.0131 F       
   2 C2            -0.0189     1.5409     0.0105 C.3     
   3 C3             0.0021    -0.0041     0.0020 C.3     
   4 C4            -0.6985    -0.3962     1.3218 C.3     
   5 O5            -1.5292     0.7387     1.6500 O.3     
   6 C6            -0.7297     1.8993     1.3344 C.3     
   7 C7            -1.6237     3.1262     1.1437 C.3     
   8 C8            -1.5461    -1.6259     1.1205 C.2     
   9 C9            -1.1006    -2.9033     1.1910 C.2     
  10 N10           -2.8719    -1.6254     0.8470 N.pl3   
  11 C11           -3.3007    -2.9314     0.7313 C.2     
  12 C12           -2.1953    -3.7564     0.9454 C.2     
  13 N13           -3.8126    -0.5997     0.6743 N.2     
  14 C14           -5.0572    -0.8923     0.4115 C.2     
  15 N15           -5.4829    -2.1484     0.2980 N.2     
  16 C16           -4.6596    -3.1746     0.4455 C.2     
  17 O17           -2.2379     3.4662     2.3884 O.3     
  18 N18           -5.1269    -4.4684     0.3228 N.pl3   
  19 C19           -2.1772    -5.1880     0.9208 C.1     
  20 C20           -2.1623    -6.3618     0.9006 C.1     
  21 Si21          -2.1382    -8.2613     0.8680 Si      
  22 C22           -0.4110    -8.8666     1.2160 C.3     
  23 C23           -3.3004    -8.9195     2.1668 C.3     
  24 C24           -2.6797    -8.8605    -0.8109 C.3     
  25 O25            1.3126     2.0597     0.0006 O.3     
  26 *26            1.8227     2.3053    -1.2907 Du      
  27 H27           -0.5818     1.9199    -0.8424 H       
  28 H28           -0.5526    -0.3889    -0.8538 H       
  29 H29            0.0385    -0.5666     2.1065 H       
  30 H30            0.0026     2.0810     2.1211 H       
  31 H31           -1.0207     3.9646     0.7951 H       
  32 H32           -2.3953     2.9025     0.4070 H       
  33 H33           -0.0869    -3.2128     1.3981 H       
  34 H34           -5.7660    -0.0877     0.2820 H       
  35 H35           -2.8202     4.2368     2.3421 H       
  36 H36           -6.0633    -4.6293     0.1274 H       
  37 H37           -4.5187    -5.2161     0.4320 H       
  38 H38           -0.0942    -8.5160     2.1982 H       
  39 H39           -0.3972    -9.9563     1.1973 H       
  40 H40            0.2689    -8.4815     0.4561 H       
  41 H41           -4.3110    -8.5654     1.9632 H       
  42 H42           -3.2866   -10.0093     2.1481 H       
  43 H43           -2.9836    -8.5690     3.1491 H       
  44 H44           -1.9998    -8.4754    -1.5708 H       
  45 H45           -2.6659    -9.9502    -0.8296 H       
  46 H46           -3.6903    -8.5064    -1.0145 H       
@<TRIPOS>BOND
   1    1    3 1
   2    2    3 1
   3    2   25 1
   4    2    6 1
   5    2   27 1
   6    3    4 1
   7    3   28 1
   8    4    5 1
   9    4    8 1
  10    4   29 1
  11    5    6 1
  12    6    7 1
  13    6   30 1
  14    7   17 1
  15    7   31 1
  16    7   32 1
  17    8    9 2
  18    8   10 1
  19    9   12 1
  20    9   33 1
  21   10   11 1
  22   10   13 1
  23   11   12 2
  24   11   16 1
  25   12   19 1
  26   13   14 2
  27   14   15 1
  28   14   34 1
  29   15   16 2
  30   16   18 1
  31   17   35 1
  32   18   36 1
  33   18   37 1
  34   19   20 3
  35   20   21 1
  36   21   22 1
  37   21   23 1
  38   21   24 1
  39   22   38 1
  40   22   39 1
  41   22   40 1
  42   23   41 1
  43   23   42 1
  44   23   43 1
  45   24   44 1
  46   24   45 1
  47   24   46 1
  48   25   26 1

#	End of record

