#	Name: ASD01883566
#	Creating user name:	WinNT
#	Creation time:	15. 06. 2019 19:46

#	Modifying user name:	WinNT
#	Modification time:	15. 06. 2019 19:46

#	Program:	/corina/corina34_cracker 3.40 0067  02.08.2006

@<TRIPOS>MOLECULE
ASD01883566
  48   51    0    0    0
SMALL
NO_CHARGES


@<TRIPOS>ATOM
   1 C1            -0.0162     1.3453     0.0094 C.2     
   2 C2             0.0021    -0.0041     0.0020 C.2     
   3 N3             1.1772    -0.6879    -0.0124 N.am    
   4 C4             2.3585    -0.0433    -0.0202 C.2     
   5 C5             2.3962     1.3583    -0.0130 C.2     
   6 C6             1.2013     2.0642     0.0017 C.2     
   7 C7             1.1570    -2.1527    -0.0191 C.3     
   8 O8             3.4000    -0.6806    -0.0332 O.2     
   9 Cl9            3.9153     2.1985    -0.0219 Cl      
  10 C10            1.2014     3.5445     0.0091 C.ar    
  11 C11            0.6809     4.2489    -1.0772 C.ar    
  12 C12            0.6820     5.6268    -1.0684 C.ar    
  13 C13            1.2017     6.3160     0.0217 C.ar    
  14 C14            1.7223     5.6162     1.1069 C.ar    
  15 C15            1.7172     4.2380     1.1055 C.ar    
  16 C16            1.1362    -2.6559    -1.4639 C.3     
  17 N17            1.2020     7.7101     0.0277 N.pl3   
  18 Cl18           2.3709     6.4800     2.4659 Cl      
  19 C19            0.6550     8.4477    -1.1137 C.3     
  20 C20            0.1956     9.8350    -0.6548 C.3     
  21 C21           -0.3012    10.6265    -1.8674 C.3     
  22 O22            0.7434    10.7129    -2.8387 O.3     
  23 C23            1.1809     9.4479    -3.3392 C.3     
  24 C24            1.7372     8.6091    -2.1857 C.3     
  25 C25            1.2315    -4.1665    -1.6873 C.3     
  26 C26           -0.0950    -3.4409    -1.9209 C.3     
  27 H27           -0.9578     1.8743     0.0168 H       
  28 H28           -0.9304    -0.5488     0.0080 H       
  29 H29            2.0467    -2.5307     0.4845 H       
  30 H30            0.2670    -2.5062     0.5016 H       
  31 H31            0.2776     3.7143    -1.9246 H       
  32 H32            0.2791     6.1720    -1.9091 H       
  33 H33            2.1211     3.6952     1.9473 H       
  34 H34            1.6198    -2.0075    -2.1945 H       
  35 H35            1.5644     8.1917     0.7877 H       
  36 H36           -0.1923     7.9017    -1.5285 H       
  37 H37           -0.6134     9.7302     0.0681 H       
  38 H38            1.0313    10.3614    -0.1937 H       
  39 H39           -1.1624    10.1205    -2.3038 H       
  40 H40           -0.5895    11.6297    -1.5534 H       
  41 H41            0.3391     8.9265    -3.7949 H       
  42 H42            1.9603     9.6021    -4.0855 H       
  43 H43            2.6041     9.1107    -1.7556 H       
  44 H44            2.0307     7.6274    -2.5577 H       
  45 H45            1.7776    -4.5119    -2.5651 H       
  46 H46            1.3091    -4.8018    -0.8050 H       
  47 H47           -0.8902    -3.5988    -1.1923 H       
  48 H48           -0.4217    -3.3089    -2.9524 H       
@<TRIPOS>BOND
   1    1    2 2
   2    1    6 1
   3    1   27 1
   4    2    3 1
   5    2   28 1
   6    3    4 am
   7    3    7 1
   8    4    5 1
   9    4    8 2
  10    5    6 2
  11    5    9 1
  12    6   10 1
  13    7   16 1
  14    7   29 1
  15    7   30 1
  16   10   11 ar
  17   10   15 ar
  18   11   12 ar
  19   11   31 1
  20   12   13 ar
  21   12   32 1
  22   13   14 ar
  23   13   17 1
  24   14   15 ar
  25   14   18 1
  26   15   33 1
  27   16   25 1
  28   16   26 1
  29   16   34 1
  30   17   19 1
  31   17   35 1
  32   19   20 1
  33   19   24 1
  34   19   36 1
  35   20   21 1
  36   20   37 1
  37   20   38 1
  38   21   22 1
  39   21   39 1
  40   21   40 1
  41   22   23 1
  42   23   24 1
  43   23   41 1
  44   23   42 1
  45   24   43 1
  46   24   44 1
  47   25   26 1
  48   25   45 1
  49   25   46 1
  50   26   47 1
  51   26   48 1

#	End of record

