#	Name: ASD01911859
#	Creating user name:	WinNT
#	Creation time:	15. 06. 2019 19:58

#	Modifying user name:	WinNT
#	Modification time:	15. 06. 2019 19:58

#	Program:	/corina/corina34_cracker 3.40 0067  02.08.2006

@<TRIPOS>MOLECULE
ASD01911859
  36   38    0    0    0
SMALL
NO_CHARGES


@<TRIPOS>ATOM
   1 C1            -1.0500    -0.4984    -2.0815 C.ar    
   2 C2            -1.0543     0.0500    -0.8030 C.ar    
   3 C3            -1.0138     1.4351    -0.6797 C.ar    
   4 N4            -0.9731     2.1761    -1.7747 N.ar    
   5 C5            -0.9705     1.6187    -2.9690 C.ar    
   6 N6            -1.0080     0.3109    -3.1270 N.ar    
   7 O7            -1.0973    -0.7468     0.2971 O.3     
   8 C8            -1.1386    -2.0921     0.1093 C.ar    
   9 C9             0.0156    -2.7786    -0.2318 C.ar    
  10 C10           -0.0271    -4.1602    -0.4241 C.ar    
  11 C11           -1.2335    -4.8452    -0.2720 C.ar    
  12 C12           -2.3839    -4.1509     0.0695 C.ar    
  13 C13           -2.3351    -2.7764     0.2650 C.ar    
  14 N14           -3.5939    -4.8357     0.2224 N.am    
  15 C15           -4.7556    -4.2303    -0.0944 C.2     
  16 C16           -6.0401    -4.9141     0.1652 C.ar    
  17 O17           -4.7470    -3.1220    -0.5937 O.2     
  18 C18           -7.2449    -4.2899    -0.1617 C.ar    
  19 C19           -8.4409    -4.9330     0.0831 C.ar    
  20 C20           -8.4482    -6.1941     0.6513 C.ar    
  21 C21           -7.2567    -6.8195     0.9788 C.ar    
  22 C22           -6.0532    -6.1892     0.7332 C.ar    
  23 Cl23          -7.2763    -8.4018     1.6927 Cl      
  24 C24            1.1636    -4.8730    -0.7772 C.1     
  25 N25            2.1083    -5.4385    -1.0572 N.1     
  26 H26           -1.0762    -1.5694    -2.2184 H       
  27 H27           -1.0160     1.8986     0.2957 H       
  28 H28           -0.9371     2.2519    -3.8432 H       
  29 H29            0.9472    -2.2450    -0.3490 H       
  30 H30           -1.2709    -5.9143    -0.4203 H       
  31 H31           -3.2327    -2.2381     0.5313 H       
  32 H32           -3.5968    -5.7464     0.5565 H       
  33 H33           -7.2411    -3.3051    -0.6051 H       
  34 H34           -9.3735    -4.4505    -0.1693 H       
  35 H35           -9.3871    -6.6930     0.8408 H       
  36 H36           -5.1243    -6.6776     0.9885 H       
@<TRIPOS>BOND
   1    1    2 ar
   2    1    6 ar
   3    1   26 1
   4    2    3 ar
   5    2    7 1
   6    3    4 ar
   7    3   27 1
   8    4    5 ar
   9    5    6 ar
  10    5   28 1
  11    7    8 1
  12    8    9 ar
  13    8   13 ar
  14    9   10 ar
  15    9   29 1
  16   10   11 ar
  17   10   24 1
  18   11   12 ar
  19   11   30 1
  20   12   13 ar
  21   12   14 1
  22   13   31 1
  23   14   15 am
  24   14   32 1
  25   15   16 1
  26   15   17 2
  27   16   18 ar
  28   16   22 ar
  29   18   19 ar
  30   18   33 1
  31   19   20 ar
  32   19   34 1
  33   20   21 ar
  34   20   35 1
  35   21   22 ar
  36   21   23 1
  37   22   36 1
  38   24   25 3

#	End of record

