#	Name: ASD02039442
#	Creating user name:	WinNT
#	Creation time:	15. 06. 2019 20:18

#	Modifying user name:	WinNT
#	Modification time:	15. 06. 2019 20:18

#	Program:	/corina/corina34_cracker 3.40 0067  02.08.2006

@<TRIPOS>MOLECULE
ASD02039442
  58   62    0    0    0
SMALL
NO_CHARGES


@<TRIPOS>ATOM
   1 C1             0.0463     1.1600     0.0252 C.ar    
   2 C2             0.2686    -0.2036     0.0924 C.ar    
   3 C3             1.2136     2.1131     0.0348 C.3     
   4 N4             1.7354     2.2599    -1.3262 N.am    
   5 C5             1.3374     3.2948    -2.0925 C.2     
   6 C6             0.2937     4.2134    -1.6054 C.2     
   7 C7            -0.2770     5.2322    -2.3107 C.2     
   8 N8            -0.2797     4.1966    -0.3750 N.2     
   9 C9            -1.1585     5.1544    -0.3069 C.2     
  10 N10           -1.1825     5.8178    -1.4922 N.pl3   
  11 O11            1.8399     3.4703    -3.1860 O.2     
  12 C12           -2.0347     6.9620    -1.8247 C.3     
  13 C13            2.6897     1.2819    -1.8543 C.3     
  14 C14           -0.7971    -1.0850     0.0841 C.ar    
  15 C15           -2.3203     0.7683    -0.0711 C.ar    
  16 C16           -1.2416     1.6498    -0.0564 C.ar    
  17 C17           -3.7064     1.2889    -0.1591 C.ar    
  18 C18           -4.1222     2.3097     0.7113 C.ar    
  19 C19           -2.0918    -0.6066     0.0085 C.ar    
  20 C20           -4.5746     0.7683    -1.1012 C.ar    
  21 C21           -5.8831     1.2656    -1.1782 C.ar    
  22 C22           -6.2932     2.2938    -0.2886 C.ar    
  23 C23           -5.3865     2.8050     0.6529 C.ar    
  24 C24           -6.8099     0.7771    -2.1141 C.ar    
  25 N25           -8.0249     1.2723    -2.1512 N.ar    
  26 C26           -8.4335     2.2319    -1.3327 C.ar    
  27 C27           -7.6116     2.7725    -0.3903 C.ar    
  28 F28           -3.1327    -1.4678    -0.0001 F       
  29 C29            2.1385     0.6751    -3.1483 C.3     
  30 C30            3.1757    -0.2864    -3.7342 C.3     
  31 O31            4.3992     0.4160    -3.9620 O.3     
  32 C32            4.9858     0.9647    -2.7801 C.3     
  33 C33            4.0213     1.9765    -2.1558 C.3     
  34 H34            1.2786    -0.5815     0.1513 H       
  35 H35            0.8864     3.0846     0.4053 H       
  36 H36            1.9969     1.7217     0.6840 H       
  37 H37           -0.0497     5.5172    -3.3273 H       
  38 H38           -1.7718     5.3830     0.5522 H       
  39 H39           -1.5201     7.8865    -1.5629 H       
  40 H40           -2.2502     6.9562    -2.8932 H       
  41 H41           -2.9679     6.8947    -1.2654 H       
  42 H42            2.8470     0.4924    -1.1195 H       
  43 H43           -0.6175    -2.1487     0.1364 H       
  44 H44           -1.4124     2.7145    -0.1177 H       
  45 H45           -3.4278     2.7062     1.4373 H       
  46 H46           -4.2478    -0.0133    -1.7711 H       
  47 H47           -5.6939     3.5867     1.3318 H       
  48 H48           -6.5231    -0.0044    -2.8021 H       
  49 H49           -9.4469     2.5958    -1.4158 H       
  50 H50           -7.9658     3.5534     0.2663 H       
  51 H51            1.2187     0.1315    -2.9327 H       
  52 H52            1.9332     1.4704    -3.8649 H       
  53 H53            3.3505    -1.1033    -3.0340 H       
  54 H54            2.8064    -0.6887    -4.6775 H       
  55 H55            5.1842     0.1642    -2.0674 H       
  56 H56            5.9205     1.4636    -3.0361 H       
  57 H57            3.8540     2.7980    -2.8524 H       
  58 H58            4.4480     2.3635    -1.2305 H       
@<TRIPOS>BOND
   1    1    2 ar
   2    1    3 1
   3    1   16 ar
   4    2   14 ar
   5    2   34 1
   6    3    4 1
   7    3   35 1
   8    3   36 1
   9    4    5 am
  10    4   13 1
  11    5    6 1
  12    5   11 2
  13    6    7 2
  14    6    8 1
  15    7   10 1
  16    7   37 1
  17    8    9 2
  18    9   10 1
  19    9   38 1
  20   10   12 1
  21   12   39 1
  22   12   40 1
  23   12   41 1
  24   13   29 1
  25   13   33 1
  26   13   42 1
  27   14   19 ar
  28   14   43 1
  29   15   16 ar
  30   15   17 1
  31   15   19 ar
  32   16   44 1
  33   17   20 ar
  34   17   18 ar
  35   18   23 ar
  36   18   45 1
  37   19   28 1
  38   20   21 ar
  39   20   46 1
  40   21   22 ar
  41   21   24 ar
  42   22   23 ar
  43   22   27 ar
  44   23   47 1
  45   24   25 ar
  46   24   48 1
  47   25   26 ar
  48   26   27 ar
  49   26   49 1
  50   27   50 1
  51   29   30 1
  52   29   51 1
  53   29   52 1
  54   30   31 1
  55   30   53 1
  56   30   54 1
  57   31   32 1
  58   32   33 1
  59   32   55 1
  60   32   56 1
  61   33   57 1
  62   33   58 1

#	End of record

