#	Name: ASD03082398
#	Creating user name:	WinNT
#	Creation time:	15. 06. 2019 20:27

#	Modifying user name:	WinNT
#	Modification time:	15. 06. 2019 20:27

#	Program:	/corina/corina34_cracker 3.40 0067  02.08.2006

@<TRIPOS>MOLECULE
ASD03082398
  46   48    0    0    0
SMALL
NO_CHARGES


@<TRIPOS>ATOM
   1 C1             2.3224     1.3925     0.4815 C.ar    
   2 C2             3.4753     1.9070    -0.0968 C.ar    
   3 C3             4.6666     1.2050    -0.0049 C.ar    
   4 C4             4.7055    -0.0104     0.6644 C.ar    
   5 C5             3.5567    -0.5219     1.2400 C.ar    
   6 Cl6            3.6096    -2.0420     2.0768 Cl      
   7 N7             1.1198     2.0974     0.3902 N.pl3   
   8 C8             1.1326     3.4928     0.2928 C.2     
   9 C9             0.0118     4.3147     0.0836 C.2     
  10 N10            2.1926     4.2611     0.3866 N.2     
  11 N11            1.7833     5.5922     0.2346 N.pl3   
  12 C12            0.4373     5.5974     0.0497 C.2     
  13 C13            2.6128     6.7170     0.2712 C.ar    
  14 C14            2.2292     7.8658     0.9600 C.ar    
  15 C15            3.8475     6.7160    -0.3756 C.ar    
  16 C16            4.6369     7.8459    -0.3153 C.ar    
  17 N17            4.2361     8.9167     0.3438 N.ar    
  18 C18            3.0768     8.9549     0.9725 C.ar    
  19 C19            5.9739     7.8573    -1.0104 C.3     
  20 H20            2.7859     9.8509     1.5005 H       
  21 C21           -0.4265     6.8149    -0.1568 C.3     
  22 C22           -1.0452     7.2203     1.1561 C.2     
  23 C23            2.3651     0.1731     1.1458 C.ar    
  24 O24           -1.8588     8.2864     1.2139 O.3     
  25 C25           -2.4189     8.6187     2.5116 C.3     
  26 O26           -0.8090     6.5858     2.1568 O.2     
  27 O27            5.7962     1.7060    -0.5703 O.3     
  28 C28            6.9881     0.9292    -0.4367 C.3     
  29 H29            3.4436     2.8526    -0.6176 H       
  30 H30            5.6340    -0.5574     0.7355 H       
  31 H31            0.2758     1.6192     0.3945 H       
  32 H32           -1.0088     3.9805    -0.0303 H       
  33 H33            1.2816     7.9037     1.4767 H       
  34 H34            4.1818     5.8428    -0.9161 H       
  35 H35            5.8494     8.2178    -2.0316 H       
  36 H36            6.6570     8.5155    -0.4735 H       
  37 H37            6.3824     6.8469    -1.0291 H       
  38 H38            0.1841     7.6330    -0.5388 H       
  39 H39           -1.2144     6.5840    -0.8738 H       
  40 H40            1.4692    -0.2279     1.5963 H       
  41 H41           -3.0098     7.7792     2.8780 H       
  42 H42           -1.6114     8.8282     3.2131 H       
  43 H43           -3.0561     9.4981     2.4179 H       
  44 H44            7.2217     0.8010     0.6202 H       
  45 H45            6.8387    -0.0475    -0.8969 H       
  46 H46            7.8131     1.4416    -0.9315 H       
@<TRIPOS>BOND
   1    1    2 ar
   2    1    7 1
   3    1   23 ar
   4    2    3 ar
   5    2   29 1
   6    3    4 ar
   7    3   27 1
   8    4    5 ar
   9    4   30 1
  10    5   23 ar
  11    5    6 1
  12    7    8 1
  13    7   31 1
  14    8    9 1
  15    8   10 2
  16    9   12 2
  17    9   32 1
  18   10   11 1
  19   11   12 1
  20   11   13 1
  21   12   21 1
  22   13   14 ar
  23   13   15 ar
  24   14   18 ar
  25   14   33 1
  26   15   16 ar
  27   15   34 1
  28   16   17 ar
  29   16   19 1
  30   17   18 ar
  31   18   20 1
  32   19   35 1
  33   19   36 1
  34   19   37 1
  35   21   22 1
  36   21   38 1
  37   21   39 1
  38   22   24 1
  39   22   26 2
  40   23   40 1
  41   24   25 1
  42   25   41 1
  43   25   42 1
  44   25   43 1
  45   27   28 1
  46   28   44 1
  47   28   45 1
  48   28   46 1

#	End of record

