#	Name: ASD01884804
#	Creating user name:	WinNT
#	Creation time:	15. 06. 2019 19:48

#	Modifying user name:	WinNT
#	Modification time:	15. 06. 2019 19:48

#	Program:	/corina/corina34_cracker 3.40 0067  02.08.2006

@<TRIPOS>MOLECULE
ASD01884804
  48   52    0    0    0
SMALL
NO_CHARGES


@<TRIPOS>ATOM
   1 C1            -0.4405     1.2698     0.2469 C.3     
   2 C2            -0.1584    -0.2326     0.1822 C.3     
   3 H3            -1.0921    -0.7833     0.2964 H       
   4 C4             0.4741    -0.5751    -1.1655 C.3     
   5 N5             1.0418    -1.9188    -1.1936 N.am    
   6 C6             1.7235    -2.4207    -0.1354 C.2     
   7 O7             2.3646    -3.4515    -0.2154 O.2     
   8 C8             1.6461    -1.6513     1.1134 C.2     
   9 C9             2.3406    -1.7608     2.2983 C.2     
  10 C10            1.8276    -0.7254     3.1101 C.2     
  11 N11            0.9101    -0.0927     2.4203 N.2     
  12 N12            0.7652    -0.6047     1.2615 N.pl3   
  13 C13            3.3935    -2.7467     2.6442 C.2     
  14 C14            4.0948    -2.8472     3.8748 C.2     
  15 C15            4.9413    -3.9021     3.6828 C.2     
  16 O16            4.7169    -4.3463     2.4332 O.3     
  17 N17            3.8582    -3.7028     1.8766 N.2     
  18 C18            5.9122    -4.4472     4.6558 C.ar    
  19 C19            6.7240    -5.5356     4.3172 C.ar    
  20 C20            7.6164    -6.0080     5.2639 C.ar    
  21 C21            7.6768    -5.3953     6.5023 C.ar    
  22 N22            6.8986    -4.3706     6.7940 N.ar    
  23 C23            6.0384    -3.8813     5.9252 C.ar    
  24 C24            0.8786    -2.7062    -2.3374 C.ar    
  25 C25            0.0871    -3.8466    -2.2902 C.ar    
  26 C26           -0.0724    -4.6219    -3.4219 C.ar    
  27 C27            0.5551    -4.2642    -4.6011 C.ar    
  28 C28            1.3442    -3.1296    -4.6514 C.ar    
  29 C29            1.5029    -2.3465    -3.5249 C.ar    
  30 C30            0.3791    -5.1129    -5.8339 C.3     
  31 F31           -0.7283    -4.6589    -6.5584 F       
  32 F32            1.5261    -5.0225    -6.6299 F       
  33 F33            0.1762    -6.4450    -5.4579 F       
  34 H34            0.4934     1.8201     0.1327 H       
  35 H35           -1.1252     1.5457    -0.5551 H       
  36 H36           -0.8907     1.5139     1.2091 H       
  37 H37           -0.2874    -0.4981    -1.9417 H       
  38 H38            1.2640     0.1455    -1.3772 H       
  39 H39            2.1359    -0.4960     4.1194 H       
  40 H40            3.9850    -2.2329     4.7562 H       
  41 H41            6.6557    -5.9955     3.3424 H       
  42 H42            8.2585    -6.8464     5.0380 H       
  43 H43            8.3723    -5.7619     7.2429 H       
  44 H44            5.4217    -3.0381     6.1992 H       
  45 H45           -0.4027    -4.1270    -1.3694 H       
  46 H46           -0.6877    -5.5088    -3.3858 H       
  47 H47            1.8332    -2.8532    -5.5738 H       
  48 H48            2.1156    -1.4581    -3.5661 H       
@<TRIPOS>BOND
   1    1    2 1
   2    1   34 1
   3    1   35 1
   4    1   36 1
   5    2    3 1
   6    2   12 1
   7    2    4 1
   8    4    5 1
   9    4   37 1
  10    4   38 1
  11    5    6 am
  12    5   24 1
  13    6    7 2
  14    6    8 1
  15    8   12 1
  16    8    9 2
  17    9   10 1
  18    9   13 1
  19   10   11 2
  20   10   39 1
  21   11   12 1
  22   13   17 2
  23   13   14 1
  24   14   15 2
  25   14   40 1
  26   15   16 1
  27   15   18 1
  28   16   17 1
  29   18   23 ar
  30   18   19 ar
  31   19   20 ar
  32   19   41 1
  33   20   21 ar
  34   20   42 1
  35   21   22 ar
  36   21   43 1
  37   22   23 ar
  38   23   44 1
  39   24   29 ar
  40   24   25 ar
  41   25   26 ar
  42   25   45 1
  43   26   27 ar
  44   26   46 1
  45   27   28 ar
  46   27   30 1
  47   28   29 ar
  48   28   47 1
  49   29   48 1
  50   30   31 1
  51   30   32 1
  52   30   33 1

#	End of record

