#	Name: ASD08178262
#	Creating user name:	WinNT
#	Creation time:	15. 06. 2019 21:18

#	Modifying user name:	WinNT
#	Modification time:	15. 06. 2019 21:18

#	Program:	/corina/corina34_cracker 3.40 0067  02.08.2006

@<TRIPOS>MOLECULE
ASD08178262
  70   72    0    0    0
SMALL
NO_CHARGES


@<TRIPOS>ATOM
   1 N1            -0.0168     1.3902     0.0097 N.am    
   2 C2            -0.2164     0.0102     0.0229 C.ar    
   3 C3             0.8697    -0.8551    -0.0928 C.ar    
   4 N4            -1.4386    -0.4841     0.1510 N.ar    
   5 N5            -1.6646    -1.7474     0.1682 N.ar    
   6 C6            -0.6976    -2.6372     0.0598 C.ar    
   7 C7             0.6183    -2.2186    -0.0737 C.ar    
   8 C8            -1.0211    -4.1088     0.0868 C.3     
   9 C9            -1.8077    -4.4348     1.3579 C.3     
  10 C10           -2.1362    -5.9289     1.3854 C.3     
  11 C11           -2.9228    -6.2549     2.6565 C.3     
  12 C12           -3.2463    -7.7265     2.6835 C.2     
  13 N13           -2.5147    -8.6601     3.2038 N.2     
  14 N14           -2.9617    -9.8382     3.1245 N.2     
  15 C15           -4.1055   -10.0107     2.5337 C.2     
  16 S16           -4.6930    -8.4861     2.0189 S.3     
  17 N17           -4.7492   -11.2303     2.3539 N.am    
  18 C18           -4.1839   -12.3647     2.8123 C.2     
  19 C19           -4.8814   -13.6863     2.6175 C.3     
  20 O20           -3.1139   -12.3219     3.3817 O.2     
  21 C21           -4.0461   -14.7883     3.2167 C.ar    
  22 C22           -4.2258   -15.1510     4.5382 C.ar    
  23 C23           -3.4594   -16.1619     5.0879 C.ar    
  24 C24           -2.5140   -16.8102     4.3157 C.ar    
  25 C25           -2.3349   -16.4480     2.9936 C.ar    
  26 C26           -3.1040   -15.4403     2.4428 C.ar    
  27 C27           -1.3037   -17.1545     2.1518 C.3     
  28 N28           -1.9181   -18.3117     1.4963 N.am    
  29 C29           -1.1805   -19.0985     0.6879 C.2     
  30 C30           -1.8124   -20.2889     0.0136 C.3     
  31 O31           -0.0082   -18.8484     0.5031 O.2     
  32 C32            0.3231   -21.5849     0.0651 C.3     
  33 C33           -0.7655   -21.0062    -0.8410 C.3     
  34 C34           -1.4341   -22.1390    -1.6224 C.3     
  35 C35           -1.0755     2.2243     0.0168 C.2     
  36 O36           -2.2002     1.7772    -0.0599 O.2     
  37 C37           -0.8617     3.7124     0.1201 C.3     
  38 H38            0.8839     1.7500    -0.0006 H       
  39 H39            1.8758    -0.4757    -0.1945 H       
  40 H40            1.4227    -2.9336    -0.1640 H       
  41 H41           -1.6201    -4.3652    -0.7870 H       
  42 H42           -0.0956    -4.6846     0.0745 H       
  43 H43           -1.2087    -4.1784     2.2317 H       
  44 H44           -2.7332    -3.8591     1.3702 H       
  45 H45           -2.7352    -6.1853     0.5116 H       
  46 H46           -1.2107    -6.5046     1.3731 H       
  47 H47           -2.3238    -5.9985     3.5303 H       
  48 H48           -3.8483    -5.6791     2.6688 H       
  49 H49           -5.6050   -11.2646     1.8985 H       
  50 H50           -5.8541   -13.6596     3.1087 H       
  51 H51           -5.0173   -13.8718     1.5520 H       
  52 H52           -4.9645   -14.6444     5.1415 H       
  53 H53           -3.5993   -16.4448     6.1208 H       
  54 H54           -1.9149   -17.5994     4.7454 H       
  55 H55           -2.9642   -15.1574     1.4100 H       
  56 H56           -0.9208   -16.4694     1.3954 H       
  57 H57           -0.4838   -17.4896     2.7870 H       
  58 H58           -2.8556   -18.5117     1.6441 H       
  59 H59           -2.1954   -20.9740     0.7699 H       
  60 H60           -2.6323   -19.9538    -0.6216 H       
  61 H61            0.7994   -20.7778     0.6218 H       
  62 H62           -0.1237   -22.2932     0.7629 H       
  63 H63            1.0689   -22.0959    -0.5437 H       
  64 H64           -0.3188   -20.2979    -1.5388 H       
  65 H65           -1.8808   -22.8473    -0.9246 H       
  66 H66           -2.2096   -21.7267    -2.2679 H       
  67 H67           -0.6883   -22.6500    -2.2312 H       
  68 H68            0.2062     3.9228     0.1794 H       
  69 H69           -1.2800     4.2016    -0.7596 H       
  70 H70           -1.3565     4.0894     1.0152 H       
@<TRIPOS>BOND
   1    1    2 1
   2    1   35 am
   3    1   38 1
   4    2    3 ar
   5    2    4 ar
   6    3    7 ar
   7    3   39 1
   8    4    5 ar
   9    5    6 ar
  10    6    7 ar
  11    6    8 1
  12    7   40 1
  13    8    9 1
  14    8   41 1
  15    8   42 1
  16    9   10 1
  17    9   43 1
  18    9   44 1
  19   10   11 1
  20   10   45 1
  21   10   46 1
  22   11   12 1
  23   11   47 1
  24   11   48 1
  25   12   13 2
  26   12   16 1
  27   13   14 1
  28   14   15 2
  29   15   16 1
  30   15   17 1
  31   17   18 am
  32   17   49 1
  33   18   19 1
  34   18   20 2
  35   19   21 1
  36   19   50 1
  37   19   51 1
  38   21   22 ar
  39   21   26 ar
  40   22   23 ar
  41   22   52 1
  42   23   24 ar
  43   23   53 1
  44   24   25 ar
  45   24   54 1
  46   25   26 ar
  47   25   27 1
  48   26   55 1
  49   27   28 1
  50   27   56 1
  51   27   57 1
  52   28   29 am
  53   28   58 1
  54   29   30 1
  55   29   31 2
  56   30   33 1
  57   30   59 1
  58   30   60 1
  59   32   33 1
  60   32   61 1
  61   32   62 1
  62   32   63 1
  63   33   34 1
  64   33   64 1
  65   34   65 1
  66   34   66 1
  67   34   67 1
  68   35   36 2
  69   35   37 1
  70   37   68 1
  71   37   69 1
  72   37   70 1

#	End of record

