#	Name: ASD01870376
#	Creating user name:	WinNT
#	Creation time:	15. 06. 2019 19:39

#	Modifying user name:	WinNT
#	Modification time:	15. 06. 2019 19:39

#	Program:	/corina/corina34_cracker 3.40 0067  02.08.2006

@<TRIPOS>MOLECULE
ASD01870376
  57   61    0    0    0
SMALL
NO_CHARGES


@<TRIPOS>ATOM
   1 N1            -0.0179     1.4666     0.0101 N.am    
   2 C2             0.0021    -0.0041     0.0020 C.3     
   3 C3             1.1293     2.1740     0.0030 C.2     
   4 C4             1.0857     3.6803     0.0115 C.3     
   5 O5             2.1967     1.5983    -0.0103 O.2     
   6 C6             2.4763     4.3407     0.0017 C.3     
   7 N7             1.9076     5.2908    -0.9739 N.am    
   8 C8             0.8907     4.3026    -1.3830 C.3     
   9 S9             2.2664     6.8425    -1.4275 S.o2    
  10 C10            3.4250     6.7442    -2.7514 C.ar    
  11 O11            1.0740     7.3858    -1.9773 O.2     
  12 O12            2.9563     7.4310    -0.3334 O.2     
  13 C13           -0.8911    -0.5093     1.1401 C.3     
  14 N14           -2.2246     0.0945     1.0166 N.3     
  15 C15           -2.1639     1.5549     1.1634 C.3     
  16 C16           -1.3229     2.1448     0.0200 C.3     
  17 C17            4.7815     6.7215    -2.4851 C.ar    
  18 C18           -3.1111    -0.4624     1.9335 C.ar    
  19 C19           -4.4382    -0.0378     1.9944 C.ar    
  20 C20           -2.6971    -1.4639     2.8116 C.ar    
  21 C21           -3.6064    -1.9896     3.7049 C.ar    
  22 N22           -4.8531    -1.5568     3.7352 N.ar    
  23 C23           -5.2847    -0.6150     2.9173 C.ar    
  24 C24            2.9793     6.6839    -4.0607 C.ar    
  25 C25            3.8874     6.6072    -5.0921 C.ar    
  26 C26            5.2532     6.5894    -4.8378 C.ar    
  27 C27            5.6940     6.6447    -3.5173 C.ar    
  28 C28            3.7335     6.5305    -6.5936 C.3     
  29 C29            5.1565     6.4704    -7.1068 C.2     
  30 N30            5.9657     6.5090    -6.0348 N.am    
  31 C31            7.4281     6.4719    -6.1138 C.3     
  32 O32            5.5013     6.4004    -8.2675 O.2     
  33 H33           -0.3779    -0.3702    -0.9518 H       
  34 H34            1.0222    -0.3573     0.1528 H       
  35 H35            0.4145     4.0817     0.7708 H       
  36 H36            2.7518     4.7987     0.9517 H       
  37 H37            3.2612     3.7060    -0.4094 H       
  38 H38            1.2098     3.6567    -2.2009 H       
  39 H39           -0.0998     4.7302    -1.5387 H       
  40 H40           -0.9763    -1.5943     1.0813 H       
  41 H41           -0.4526    -0.2298     2.0981 H       
  42 H42           -3.1722     1.9669     1.1215 H       
  43 H43           -1.7077     1.8056     2.1210 H       
  44 H44           -1.1778     3.2123     0.1853 H       
  45 H45           -1.8328     1.9844    -0.9299 H       
  46 H46            5.1289     6.7645    -1.4634 H       
  47 H47           -4.7978     0.7326     1.3283 H       
  48 H48           -1.6786    -1.8228     2.7918 H       
  49 H49           -3.2948    -2.7657     4.3883 H       
  50 H50           -6.3128    -0.2892     2.9747 H       
  51 H51            1.9203     6.6965    -4.2725 H       
  52 H52            6.7521     6.6318    -3.3013 H       
  53 H53            3.1873     5.6305    -6.8761 H       
  54 H54            3.2284     7.4194    -6.9716 H       
  55 H55            7.7341     6.4092    -7.1581 H       
  56 H56            7.8391     7.3780    -5.6685 H       
  57 H57            7.7991     5.6010    -5.5735 H       
@<TRIPOS>BOND
   1    1    2 1
   2    1    3 am
   3    1   16 1
   4    2   13 1
   5    2   33 1
   6    2   34 1
   7    3    4 1
   8    3    5 2
   9    4    6 1
  10    4    8 1
  11    4   35 1
  12    6    7 1
  13    6   36 1
  14    6   37 1
  15    7    8 1
  16    7    9 am
  17    8   38 1
  18    8   39 1
  19    9   10 1
  20    9   11 2
  21    9   12 2
  22   10   24 ar
  23   10   17 ar
  24   13   14 1
  25   13   40 1
  26   13   41 1
  27   14   15 1
  28   14   18 1
  29   15   16 1
  30   15   42 1
  31   15   43 1
  32   16   44 1
  33   16   45 1
  34   17   27 ar
  35   17   46 1
  36   18   19 ar
  37   18   20 ar
  38   19   23 ar
  39   19   47 1
  40   20   21 ar
  41   20   48 1
  42   21   22 ar
  43   21   49 1
  44   22   23 ar
  45   23   50 1
  46   24   25 ar
  47   24   51 1
  48   25   26 ar
  49   25   28 1
  50   26   27 ar
  51   26   30 1
  52   27   52 1
  53   28   29 1
  54   28   53 1
  55   28   54 1
  56   29   30 am
  57   29   32 2
  58   30   31 1
  59   31   55 1
  60   31   56 1
  61   31   57 1

#	End of record

