#	Name: ASD01911321
#	Creating user name:	WinNT
#	Creation time:	15. 06. 2019 19:57

#	Modifying user name:	WinNT
#	Modification time:	15. 06. 2019 19:57

#	Program:	/corina/corina34_cracker 3.40 0067  02.08.2006

@<TRIPOS>MOLECULE
ASD01911321
  30   32    0    0    0
SMALL
NO_CHARGES


@<TRIPOS>ATOM
   1 C1            -0.0167     1.3796     0.0096 C.ar    
   2 C2             0.0021    -0.0041     0.0020 C.ar    
   3 C3             1.2058    -0.6865    -0.0127 C.ar    
   4 C4             2.3967     0.0090    -0.0200 C.ar    
   5 C5             2.3857     1.4065    -0.0128 C.ar    
   6 C6             1.1661     2.0888     0.0021 C.ar    
   7 C7             3.6181     2.1357    -0.0202 C.1     
   8 C8             4.6285     2.7336    -0.0263 C.1     
   9 C9             5.8608     3.4629    -0.0337 C.ar    
  10 N10            5.8364     4.7930    -0.0268 N.ar    
  11 C11            6.9483     5.5085    -0.0337 C.ar    
  12 C12            8.1911     4.8719    -0.0447 C.ar    
  13 C13            8.2570     3.4844    -0.0536 C.ar    
  14 C14            7.0720     2.7685    -0.0424 C.ar    
  15 O15            6.8685     6.8645    -0.0357 O.3     
  16 C16            8.0149     7.6000     0.3972 C.3     
  17 C17            9.2523     7.0710    -0.3417 C.3     
  18 N18            9.3674     5.6331    -0.0427 N.pl3   
  19 H19           -0.9600     1.9055     0.0170 H       
  20 H20           -0.9274    -0.5541     0.0080 H       
  21 H21            1.2127    -1.7665    -0.0182 H       
  22 H22            3.3354    -0.5250    -0.0307 H       
  23 H23            1.1500     3.1686     0.0074 H       
  24 H24            9.2099     2.9763    -0.0649 H       
  25 H25            7.0843     1.6886    -0.0487 H       
  26 H26            7.8779     8.6571     0.1696 H       
  27 H27            8.1478     7.4701     1.4713 H       
  28 H28            9.1328     7.2172    -1.4152 H       
  29 H29           10.1430     7.5938     0.0068 H       
  30 H30           10.2274     5.2275     0.1491 H       
@<TRIPOS>BOND
   1    1    2 ar
   2    1    6 ar
   3    1   19 1
   4    2    3 ar
   5    2   20 1
   6    3    4 ar
   7    3   21 1
   8    4    5 ar
   9    4   22 1
  10    5    6 ar
  11    5    7 1
  12    6   23 1
  13    7    8 3
  14    8    9 1
  15    9   10 ar
  16    9   14 ar
  17   10   11 ar
  18   11   12 ar
  19   11   15 1
  20   12   13 ar
  21   12   18 1
  22   13   14 ar
  23   13   24 1
  24   14   25 1
  25   15   16 1
  26   16   17 1
  27   16   26 1
  28   16   27 1
  29   17   18 1
  30   17   28 1
  31   17   29 1
  32   18   30 1

#	End of record

