#	Name: ASD06660196
#	Creating user name:	WinNT
#	Creation time:	15. 06. 2019 21:08

#	Modifying user name:	WinNT
#	Modification time:	15. 06. 2019 21:08

#	Program:	/corina/corina34_cracker 3.40 0067  02.08.2006

@<TRIPOS>MOLECULE
ASD06660196
  69   72    0    0    0
SMALL
NO_CHARGES


@<TRIPOS>ATOM
   1 C1            -0.0184     1.5028     0.0103 C.2     
   2 C2             0.0021    -0.0041     0.0020 C.3     
   3 C3            -0.7241    -0.5171    -1.2431 C.3     
   4 O4             1.0197     2.1211     0.0037 O.2     
   5 O5            -1.1898     2.1580     0.0194 O.3     
   6 C6            -0.8113    -2.0207    -1.1900 C.ar    
   7 C7            -1.8994    -2.6267    -0.5878 C.ar    
   8 C8            -1.9848    -4.0029    -0.5356 C.ar    
   9 C9            -0.9712    -4.7833    -1.0920 C.ar    
  10 C10            0.1231    -4.1662    -1.6982 C.ar    
  11 C11            0.1944    -2.7891    -1.7486 C.ar    
  12 O12           -0.0550    -6.9737    -1.5889 O.3     
  13 C13           -1.0564    -6.2598    -1.0390 C.2     
  14 N14           -2.0831    -6.7884    -0.4695 N.2     
  15 C15           -2.2773    -8.2306    -0.3427 C.3     
  16 C16           -1.3724    -8.9646    -1.3375 C.3     
  17 C17            0.0352    -8.3587    -1.2394 C.3     
  18 C18           -1.3198   -10.4530    -0.9871 C.3     
  19 N19           -0.5513   -11.1684    -2.0088 N.pl3   
  20 C20           -0.3661   -12.5420    -1.9042 C.ar    
  21 C21           -0.9132   -13.2315    -0.8266 C.ar    
  22 C22           -0.7211   -14.5980    -0.7351 C.ar    
  23 C23            0.0144   -15.2319    -1.7280 C.ar    
  24 C24            0.5285   -14.4858    -2.7692 C.ar    
  25 N25            0.3248   -13.1835    -2.8338 N.ar    
  26 C26            2.0717    -0.5994     1.1419 C.2     
  27 O27            1.5367    -0.3240     2.1949 O.2     
  28 N28            1.3897    -0.4735    -0.0138 N.am    
  29 C29            3.4992    -1.0823     1.1257 C.3     
  30 C30            4.0362    -1.1344     2.5573 C.3     
  31 C31            3.1824    -2.0947     3.3878 C.3     
  32 C32            3.2406    -3.4932     2.7700 C.3     
  33 C33            2.7035    -3.4412     1.3384 C.3     
  34 C34            3.5574    -2.4809     0.5079 C.3     
  35 C35            4.3530    -0.1220     0.2952 C.3     
  36 H36           -0.4983    -0.3791     0.8948 H       
  37 H37           -1.7288    -0.0959    -1.2772 H       
  38 H38           -0.1736    -0.2164    -2.1345 H       
  39 H39           -1.1523     3.1243     0.0245 H       
  40 H40           -2.6835    -2.0214    -0.1574 H       
  41 H41           -2.8344    -4.4748    -0.0646 H       
  42 H42            0.9111    -4.7650    -2.1304 H       
  43 H43            1.0392    -2.3102    -2.2212 H       
  44 H44           -2.0284    -8.5420     0.6718 H       
  45 H45           -3.3188    -8.4757    -0.5510 H       
  46 H46           -1.7581    -8.8374    -2.3490 H       
  47 H47            0.7060    -8.8701    -1.9297 H       
  48 H48            0.4084    -8.4581    -0.2201 H       
  49 H49           -0.8408   -10.5810    -0.0163 H       
  50 H50           -2.3329   -10.8531    -0.9479 H       
  51 H51           -0.1718   -10.6834    -2.7583 H       
  52 H52           -1.4798   -12.7066    -0.0718 H       
  53 H53           -1.1336   -15.1595     0.0902 H       
  54 H54            0.1828   -16.2979    -1.6856 H       
  55 H55            1.1011   -14.9748    -3.5434 H       
  56 H56            1.8177    -0.6938    -0.8559 H       
  57 H57            5.0687    -1.4837     2.5456 H       
  58 H58            3.9948    -0.1380     2.9974 H       
  59 H59            3.5650    -2.1318     4.4077 H       
  60 H60            2.1499    -1.7454     3.3995 H       
  61 H61            4.2731    -3.8425     2.7583 H       
  62 H62            2.6323    -4.1774     3.3617 H       
  63 H63            2.7450    -4.4375     0.8983 H       
  64 H64            1.6711    -3.0919     1.3501 H       
  65 H65            3.1748    -2.4438    -0.5120 H       
  66 H66            4.5899    -2.8302     0.4962 H       
  67 H67            4.3116     0.8743     0.7353 H       
  68 H68            5.3855    -0.4713     0.2835 H       
  69 H69            3.9704    -0.0849    -0.7247 H       
@<TRIPOS>BOND
   1    1    2 1
   2    1    4 2
   3    1    5 1
   4    2    3 1
   5    2   28 1
   6    2   36 1
   7    3    6 1
   8    3   37 1
   9    3   38 1
  10    5   39 1
  11    6    7 ar
  12    6   11 ar
  13    7    8 ar
  14    7   40 1
  15    8    9 ar
  16    8   41 1
  17    9   10 ar
  18    9   13 1
  19   10   11 ar
  20   10   42 1
  21   11   43 1
  22   12   13 1
  23   12   17 1
  24   13   14 2
  25   14   15 1
  26   15   16 1
  27   15   44 1
  28   15   45 1
  29   16   17 1
  30   16   18 1
  31   16   46 1
  32   17   47 1
  33   17   48 1
  34   18   19 1
  35   18   49 1
  36   18   50 1
  37   19   20 1
  38   19   51 1
  39   20   21 ar
  40   20   25 ar
  41   21   22 ar
  42   21   52 1
  43   22   23 ar
  44   22   53 1
  45   23   24 ar
  46   23   54 1
  47   24   25 ar
  48   24   55 1
  49   26   27 2
  50   26   28 am
  51   26   29 1
  52   28   56 1
  53   29   30 1
  54   29   34 1
  55   29   35 1
  56   30   31 1
  57   30   57 1
  58   30   58 1
  59   31   32 1
  60   31   59 1
  61   31   60 1
  62   32   33 1
  63   32   61 1
  64   32   62 1
  65   33   34 1
  66   33   63 1
  67   33   64 1
  68   34   65 1
  69   34   66 1
  70   35   67 1
  71   35   68 1
  72   35   69 1

#	End of record

