#	Name: ASD03331378
#	Creating user name:	WinNT
#	Creation time:	15. 06. 2019 20:39

#	Modifying user name:	WinNT
#	Modification time:	15. 06. 2019 20:39

#	Program:	/corina/corina34_cracker 3.40 0067  02.08.2006

@<TRIPOS>MOLECULE
ASD03331378
  50   52    0    0    0
SMALL
NO_CHARGES


@<TRIPOS>ATOM
   1 N1             0.3624     0.4951    -0.1408 N.2     
   2 N2             0.1221    -0.8845    -0.0404 N.am    
   3 C3             1.3203    -1.5091     0.0358 C.2     
   4 C4             2.2892    -0.5621    -0.0122 C.2     
   5 C5             1.6659     0.6897    -0.1240 C.2     
   6 C6             3.7611    -0.8849     0.0518 C.3     
   7 C7             1.6206    -2.9833     0.1524 C.3     
   8 C8             3.1026    -3.1871    -0.1953 C.3     
   9 O9             3.8983    -2.2350     0.5159 O.3     
  10 C10           -1.0865    -1.4806    -0.0227 C.2     
  11 O11           -1.1663    -2.6896     0.0687 O.2     
  12 N12           -2.2066    -0.7358    -0.1064 N.am    
  13 C13            2.3532     2.0020    -0.2086 C.ar    
  14 C14            1.8183     3.0215    -0.9939 C.ar    
  15 C15            2.4618     4.2416    -1.0695 C.ar    
  16 C16            3.6390     4.4513    -0.3651 C.ar    
  17 C17            4.1726     3.4397     0.4153 C.ar    
  18 C18            3.5320     2.2200     0.5014 C.ar    
  19 F19            4.2662     5.6454    -0.4415 F       
  20 F20            1.9449     5.2313    -1.8302 F       
  21 C21           -4.5258    -0.5015    -0.7812 C.2     
  22 C22           -3.5203    -1.3837    -0.0871 C.3     
  23 C23           -3.9556    -1.6111     1.3619 C.3     
  24 C24           -5.3450    -2.2515     1.3825 C.3     
  25 O25           -4.3049     0.6839    -0.9110 O.2     
  26 C26           -2.9560    -2.5391     2.0551 C.3     
  27 C27           -4.0012    -0.2701     2.0971 C.3     
  28 N28           -5.6706    -1.0298    -1.2575 N.am    
  29 H29            4.2027    -0.7895    -0.9401 H       
  30 H30            4.2577    -0.2050     0.7441 H       
  31 H31            1.4306    -3.3195     1.1717 H       
  32 H32            0.9972    -3.5435    -0.5445 H       
  33 H33            3.4058    -4.1956     0.0858 H       
  34 H34            3.2458    -3.0512    -1.2673 H       
  35 H35           -2.1429     0.2294    -0.1794 H       
  36 H36            0.9025     2.8579    -1.5425 H       
  37 H37            5.0891     3.6068     0.9617 H       
  38 H38            3.9470     1.4337     1.1144 H       
  39 H39           -3.4604    -2.3420    -0.6031 H       
  40 H40           -5.3163    -3.1992     0.8448 H       
  41 H41           -5.6483    -2.4283     2.4144 H       
  42 H42           -6.0603    -1.5832     0.9030 H       
  43 H43           -1.9662    -2.0829     2.0404 H       
  44 H44           -3.2661    -2.7011     3.0874 H       
  45 H45           -2.9236    -3.4945     1.5313 H       
  46 H46           -4.7133     0.3910     1.6033 H       
  47 H47           -4.3113    -0.4321     3.1295 H       
  48 H48           -3.0114     0.1861     2.0825 H       
  49 H49           -6.3475    -0.4522    -1.6436 H       
  50 H50           -5.8175    -1.9876    -1.2144 H       
@<TRIPOS>BOND
   1    1    2 1
   2    1    5 2
   3    2    3 1
   4    2   10 am
   5    3    4 2
   6    3    7 1
   7    4    5 1
   8    4    6 1
   9    5   13 1
  10    6    9 1
  11    6   29 1
  12    6   30 1
  13    7    8 1
  14    7   31 1
  15    7   32 1
  16    8    9 1
  17    8   33 1
  18    8   34 1
  19   10   11 2
  20   10   12 am
  21   12   22 1
  22   12   35 1
  23   13   14 ar
  24   13   18 ar
  25   14   15 ar
  26   14   36 1
  27   15   16 ar
  28   15   20 1
  29   16   17 ar
  30   16   19 1
  31   17   18 ar
  32   17   37 1
  33   18   38 1
  34   21   25 2
  35   21   28 am
  36   21   22 1
  37   22   23 1
  38   22   39 1
  39   23   24 1
  40   23   26 1
  41   23   27 1
  42   24   40 1
  43   24   41 1
  44   24   42 1
  45   26   43 1
  46   26   44 1
  47   26   45 1
  48   27   46 1
  49   27   47 1
  50   27   48 1
  51   28   49 1
  52   28   50 1

#	End of record

