#	Name: ASD03331929
#	Creating user name:	WinNT
#	Creation time:	15. 06. 2019 20:40

#	Modifying user name:	WinNT
#	Modification time:	15. 06. 2019 20:40

#	Program:	/corina/corina34_cracker 3.40 0067  02.08.2006

@<TRIPOS>MOLECULE
ASD03331929
  66   69    0    0    0
SMALL
NO_CHARGES


@<TRIPOS>ATOM
   1 C1            -0.2738     1.3327     0.6826 C.2     
   2 N2            -0.3577    -0.0115     0.8186 N.pl3   
   3 C3             0.9118    -0.4904     0.9640 C.2     
   4 N4             1.7462     0.5226     0.9384 N.2     
   5 C5             1.0448     1.6643     0.7689 C.2     
   6 C6             1.6054     3.0250     0.6911 C.2     
   7 O7             0.8672     3.9789     0.5354 O.2     
   8 N8             2.9363     3.2123     0.7924 N.am    
   9 C9             3.4936     4.5649     0.7151 C.3     
  10 C10            3.6993     4.9487    -0.7516 C.3     
  11 C11            4.5617     3.8889    -1.4400 C.3     
  12 C12            4.8169     4.6049     1.4351 C.2     
  13 C13            2.3415     5.0347    -1.4515 C.3     
  14 C14            4.4003     6.3064    -0.8301 C.3     
  15 O15            5.3576     3.5716     1.7679 O.2     
  16 N16            5.3994     5.7890     1.7093 N.am    
  17 C17            6.7187     5.8265     2.3450 C.3     
  18 C18           -1.5993    -0.7901     0.8240 C.3     
  19 C19           -2.4793    -0.3408    -0.3466 C.3     
  20 C20           -3.3494     0.8356     0.0846 C.3     
  21 N21           -2.6459     1.6836     1.0492 N.3     
  22 C22           -1.4328     2.2696     0.4602 C.3     
  23 C23           -3.5331     2.7291     1.5763 C.3     
  24 C24            1.2851    -1.9125     1.1240 C.ar    
  25 C25            2.5172    -2.3537     0.6739 C.ar    
  26 C26            2.8652    -3.7042     0.8287 C.ar    
  27 C27            1.9494    -4.5951     1.4437 C.ar    
  28 C28            0.7047    -4.1154     1.8905 C.ar    
  29 C29            0.3877    -2.8043     1.7373 C.ar    
  30 C30            4.1076    -4.1906     0.3838 C.ar    
  31 C31            4.4140    -5.5063     0.5488 C.ar    
  32 C32            3.5136    -6.3818     1.1529 C.ar    
  33 C33            2.3023    -5.9465     1.5961 C.ar    
  34 H34            3.5251     2.4515     0.9166 H       
  35 H35            2.8046     5.2690     1.1817 H       
  36 H36            4.0622     2.9216    -1.3841 H       
  37 H37            4.7082     4.1623    -2.4849 H       
  38 H38            5.5290     3.8276    -0.9414 H       
  39 H39            1.7271     5.7897    -0.9611 H       
  40 H40            2.4880     5.3081    -2.4965 H       
  41 H41            1.8420     4.0674    -1.3956 H       
  42 H42            5.3584     6.2510    -0.3132 H       
  43 H43            4.5657     6.5701    -1.8747 H       
  44 H44            3.7763     7.0653    -0.3582 H       
  45 H45            4.9450     6.6163     1.4857 H       
  46 H46            7.4431     5.3177     1.7089 H       
  47 H47            7.0245     6.8631     2.4865 H       
  48 H48            6.6703     5.3266     3.3124 H       
  49 H49           -1.3655    -1.8494     0.7183 H       
  50 H50           -2.1289    -0.6248     1.7622 H       
  51 H51           -1.8462    -0.0370    -1.1802 H       
  52 H52           -3.1168    -1.1678    -0.6591 H       
  53 H53           -3.6084     1.4294    -0.7920 H       
  54 H54           -4.2634     0.4561     0.5415 H       
  55 H55           -1.2232     3.2278     0.9356 H       
  56 H56           -1.5819     2.4172    -0.6095 H       
  57 H57           -4.3848     2.2658     2.0743 H       
  58 H58           -2.9854     3.3444     2.2902 H       
  59 H59           -3.8872     3.3529     0.7556 H       
  60 H60            3.2051    -1.6644     0.2070 H       
  61 H61            0.0029    -4.7893     2.3592 H       
  62 H62           -0.5698    -2.4435     2.0828 H       
  63 H63            4.8147    -3.5235    -0.0867 H       
  64 H64            5.3687    -5.8773     0.2063 H       
  65 H65            3.7810    -7.4214     1.2716 H       
  66 H66            1.6152    -6.6372     2.0622 H       
@<TRIPOS>BOND
   1    1    2 1
   2    1    5 2
   3    1   22 1
   4    2    3 1
   5    2   18 1
   6    3    4 2
   7    3   24 1
   8    4    5 1
   9    5    6 1
  10    6    7 2
  11    6    8 am
  12    8    9 1
  13    8   34 1
  14    9   10 1
  15    9   12 1
  16    9   35 1
  17   10   11 1
  18   10   13 1
  19   10   14 1
  20   11   36 1
  21   11   37 1
  22   11   38 1
  23   12   15 2
  24   12   16 am
  25   13   39 1
  26   13   40 1
  27   13   41 1
  28   14   42 1
  29   14   43 1
  30   14   44 1
  31   16   17 1
  32   16   45 1
  33   17   46 1
  34   17   47 1
  35   17   48 1
  36   18   19 1
  37   18   49 1
  38   18   50 1
  39   19   20 1
  40   19   51 1
  41   19   52 1
  42   20   21 1
  43   20   53 1
  44   20   54 1
  45   21   22 1
  46   21   23 1
  47   22   55 1
  48   22   56 1
  49   23   57 1
  50   23   58 1
  51   23   59 1
  52   24   25 ar
  53   24   29 ar
  54   25   26 ar
  55   25   60 1
  56   26   27 ar
  57   26   30 ar
  58   27   28 ar
  59   27   33 ar
  60   28   29 ar
  61   28   61 1
  62   29   62 1
  63   30   31 ar
  64   30   63 1
  65   31   32 ar
  66   31   64 1
  67   32   33 ar
  68   32   65 1
  69   33   66 1

#	End of record

