#	Name: ASD09890056
#	Creating user name:	WinNT
#	Creation time:	15. 06. 2019 21:24

#	Modifying user name:	WinNT
#	Modification time:	15. 06. 2019 21:24

#	Program:	/corina/corina34_cracker 3.40 0067  02.08.2006

@<TRIPOS>MOLECULE
ASD09890056
  46   49    0    0    0
SMALL
NO_CHARGES


@<TRIPOS>ATOM
   1 C1            -0.0167     1.3807     0.0096 C.ar    
   2 C2             0.0021    -0.0041     0.0020 C.ar    
   3 C3             1.2068    -0.6869    -0.0131 C.ar    
   4 C4             2.3972     0.0087    -0.0207 C.ar    
   5 C5             2.3860     1.4069    -0.0131 C.ar    
   6 C6             1.1658     2.0895     0.0021 C.ar    
   7 C7             4.8993     4.2502    -0.0208 C.2     
   8 N8             5.0414     5.6237    -0.0148 N.pl3   
   9 C9             6.3902     5.8535    -0.0250 C.2     
  10 N10            6.9865     4.6809    -0.0363 N.2     
  11 N11            6.1130     3.7385    -0.0289 N.2     
  12 S12            7.1816     7.4278    -0.0239 S.3     
  13 C13            8.9153     6.9081    -0.0411 C.3     
  14 C14            4.0185     6.5816    -0.0016 C.ar    
  15 C15            3.1726     6.6809     1.0948 C.ar    
  16 C16            2.1653     7.6259     1.1048 C.ar    
  17 C17            1.9989     8.4725     0.0242 C.ar    
  18 C18            2.8398     8.3760    -1.0693 C.ar    
  19 C19            3.8525     7.4368    -1.0827 C.ar    
  20 Br20          -1.6252    -0.9672     0.0130 Br      
  21 C21            3.6386     3.5040    -0.0133 C.2     
  22 C22            3.6531     2.1568    -0.0207 C.2     
  23 C23            9.8327     8.1368    -0.1688 C.3     
  24 C24           10.7186     8.1585     1.0939 C.3     
  25 C25           10.7272     6.6869     1.5771 C.3     
  26 C26            9.2757     6.2259     1.2947 C.3     
  27 H27           -0.9600     1.9066     0.0169 H       
  28 H28            1.2139    -1.7668    -0.0186 H       
  29 H29            3.3360    -0.5250    -0.0322 H       
  30 H30            1.1497     3.1694     0.0077 H       
  31 H31            9.0912     6.2230    -0.8705 H       
  32 H32            3.3018     6.0198     1.9389 H       
  33 H33            1.5068     7.7035     1.9573 H       
  34 H34            1.2103     9.2104     0.0341 H       
  35 H35            2.7071     9.0383    -1.9120 H       
  36 H36            4.5091     7.3621    -1.9368 H       
  37 H37            2.6975     4.0339    -0.0019 H       
  38 H38            4.5941     1.6269    -0.0321 H       
  39 H39           10.4544     8.0477    -1.0597 H       
  40 H40            9.2338     9.0461    -0.2204 H       
  41 H41           11.7287     8.4844     0.8457 H       
  42 H42           10.2834     8.8071     1.8542 H       
  43 H43           11.4393     6.0955     1.0015 H       
  44 H44           10.9497     6.6315     2.6427 H       
  45 H45            8.6075     6.5624     2.0874 H       
  46 H46            9.2328     5.1415     1.1930 H       
@<TRIPOS>BOND
   1    1    2 ar
   2    1    6 ar
   3    1   27 1
   4    2    3 ar
   5    2   20 1
   6    3    4 ar
   7    3   28 1
   8    4    5 ar
   9    4   29 1
  10    5    6 ar
  11    5   22 1
  12    6   30 1
  13    7    8 1
  14    7   21 1
  15    7   11 2
  16    8    9 1
  17    8   14 1
  18    9   10 2
  19    9   12 1
  20   10   11 1
  21   12   13 1
  22   13   23 1
  23   13   26 1
  24   13   31 1
  25   14   15 ar
  26   14   19 ar
  27   15   16 ar
  28   15   32 1
  29   16   17 ar
  30   16   33 1
  31   17   18 ar
  32   17   34 1
  33   18   19 ar
  34   18   35 1
  35   19   36 1
  36   21   22 2
  37   21   37 1
  38   22   38 1
  39   23   24 1
  40   23   39 1
  41   23   40 1
  42   24   25 1
  43   24   41 1
  44   24   42 1
  45   25   26 1
  46   25   43 1
  47   25   44 1
  48   26   45 1
  49   26   46 1

#	End of record

