#	Name: ASD03092408
#	Creating user name:	WinNT
#	Creation time:	15. 06. 2019 20:32

#	Modifying user name:	WinNT
#	Modification time:	15. 06. 2019 20:32

#	Program:	/corina/corina34_cracker 3.40 0067  02.08.2006

@<TRIPOS>MOLECULE
ASD03092408
  46   49    0    0    0
SMALL
NO_CHARGES


@<TRIPOS>ATOM
   1 O1             0.4847     0.3849     0.3501 O.3     
   2 N2             0.6568    -0.8091     0.3283 N.2     
   3 C3             1.9148    -1.1247     0.2378 C.2     
   4 C4             2.6354     0.1571     0.1979 C.2     
   5 C5             1.6216     1.0806     0.2763 C.2     
   6 C6             4.0871     0.3925     0.0988 C.2     
   7 O7             4.8531    -0.5500     0.0379 O.2     
   8 N8             4.5655     1.6523     0.0756 N.am    
   9 C9             6.0084     1.8862    -0.0230 C.3     
  10 S10            6.7291     5.7580    -0.7213 S.3     
  11 C11            6.6120     5.3515     0.9349 C.2     
  12 N12            6.3779     4.0809     1.0716 N.2     
  13 C13            6.2775     3.3690    -0.0298 C.2     
  14 C14            6.4361     4.0788    -1.1665 C.2     
  15 C15            7.2675     3.3337    -4.7523 C.ar    
  16 C16            7.3644     3.8569    -3.4811 C.ar    
  17 C17            6.3744     3.5430    -2.5404 C.ar    
  18 C18            5.3245     2.7056    -2.9405 C.ar    
  19 C19            5.3070     2.2277    -4.2329 C.ar    
  20 N20            6.2608     2.5483    -5.0875 N.ar    
  21 N21            6.7475     6.2470     1.9800 N.3     
  22 C22            7.0068     7.6050     1.4799 C.3     
  23 C23            7.0903     8.5718     2.6641 C.3     
  24 O24            8.1048     8.1246     3.5675 O.3     
  25 C25            7.8836     6.8058     4.0746 C.3     
  26 C26            7.8081     5.8211     2.9047 C.3     
  27 C27            2.5084    -2.5089     0.1854 C.3     
  28 H28            1.7239     2.1558     0.2780 H       
  29 H29            3.9545     2.4041     0.1241 H       
  30 H30            6.5095     1.4299     0.8307 H       
  31 H31            6.3860     1.4441    -0.9449 H       
  32 H32            8.0231     3.5734    -5.4858 H       
  33 H33            8.1910     4.4985    -3.2138 H       
  34 H34            4.5412     2.4385    -2.2465 H       
  35 H35            4.5021     1.5816    -4.5509 H       
  36 H36            7.9494     7.6175     0.9327 H       
  37 H37            6.1966     7.9098     0.8176 H       
  38 H38            7.3391     9.5695     2.3025 H       
  39 H39            6.1304     8.5996     3.1796 H       
  40 H40            8.7060     6.5263     4.7331 H       
  41 H41            6.9467     6.7823     4.6311 H       
  42 H42            7.5827     4.8237     3.2824 H       
  43 H43            8.7634     5.8051     2.3802 H       
  44 H44            2.5802    -2.8344    -0.8524 H       
  45 H45            3.5029    -2.4948     0.6314 H       
  46 H46            1.8715    -3.1985     0.7393 H       
@<TRIPOS>BOND
   1    1    2 1
   2    1    5 1
   3    2    3 2
   4    3    4 1
   5    3   27 1
   6    4    5 2
   7    4    6 1
   8    5   28 1
   9    6    7 2
  10    6    8 am
  11    8    9 1
  12    8   29 1
  13    9   13 1
  14    9   30 1
  15    9   31 1
  16   10   11 1
  17   10   14 1
  18   11   12 2
  19   11   21 1
  20   12   13 1
  21   13   14 2
  22   14   17 1
  23   15   16 ar
  24   15   20 ar
  25   15   32 1
  26   16   17 ar
  27   16   33 1
  28   17   18 ar
  29   18   19 ar
  30   18   34 1
  31   19   20 ar
  32   19   35 1
  33   21   22 1
  34   21   26 1
  35   22   23 1
  36   22   36 1
  37   22   37 1
  38   23   24 1
  39   23   38 1
  40   23   39 1
  41   24   25 1
  42   25   26 1
  43   25   40 1
  44   25   41 1
  45   26   42 1
  46   26   43 1
  47   27   44 1
  48   27   45 1
  49   27   46 1

#	End of record

