#	Name: ASD04880557
#	Creating user name:	WinNT
#	Creation time:	15. 06. 2019 20:53

#	Modifying user name:	WinNT
#	Modification time:	15. 06. 2019 20:53

#	Program:	/corina/corina34_cracker 3.40 0067  02.08.2006

@<TRIPOS>MOLECULE
ASD04880557
  41   43    0    0    0
SMALL
NO_CHARGES


@<TRIPOS>ATOM
   1 C1             0.1267     1.0633     0.0384 C.ar    
   2 C2             0.1986    -0.3171     0.0220 C.ar    
   3 C3             1.4299    -0.9448    -0.0048 C.ar    
   4 C4             2.5894    -0.1921    -0.0158 C.ar    
   5 C5             2.5175     1.1883    -0.0004 C.ar    
   6 C6             1.2862     1.8160     0.0279 C.ar    
   7 C7             3.7814     2.0089    -0.0113 C.3     
   8 N8             4.1697     2.2891    -1.3959 N.pl3   
   9 C9             5.3056     3.0316    -1.6583 C.2     
  10 C10            5.8142     3.3897    -3.0365 C.3     
  11 C11            7.0883     4.2122    -2.7593 C.3     
  12 N12            7.1695     4.2354    -1.2900 N.am    
  13 N13            6.0882     3.5280    -0.7686 N.2     
  14 C14            8.1301     4.8447    -0.5671 C.2     
  15 O15            9.0837     5.3510    -1.1272 O.2     
  16 C16            8.0247     4.8976     0.9064 C.ar    
  17 C17            9.0823     5.3990     1.6673 C.ar    
  18 C18            8.9773     5.4460     3.0418 C.ar    
  19 C19            7.8271     4.9971     3.6667 C.ar    
  20 C20            6.7756     4.4986     2.9186 C.ar    
  21 C21            6.8652     4.4518     1.5426 C.ar    
  22 C22           10.1179     5.9870     3.8649 C.3     
  23 H23           -0.8353     1.5538     0.0548 H       
  24 H24           -0.7072    -0.9051     0.0306 H       
  25 H25            1.4861    -2.0232    -0.0169 H       
  26 H26            3.5514    -0.6825    -0.0361 H       
  27 H27            1.2300     2.8945     0.0403 H       
  28 H28            3.6096     2.9478     0.5149 H       
  29 H29            4.5785     1.4549     0.4845 H       
  30 H30            3.6297     1.9535    -2.1284 H       
  31 H31            6.0556     2.4891    -3.6010 H       
  32 H32            5.0792     3.9917    -3.5708 H       
  33 H33            7.9630     3.7197    -3.1842 H       
  34 H34            6.9861     5.2230    -3.1541 H       
  35 H35            9.9808     5.7490     1.1809 H       
  36 H36            7.7501     5.0358     4.7433 H       
  37 H37            5.8809     4.1495     3.4125 H       
  38 H38            6.0418     4.0669     0.9594 H       
  39 H39            9.9908     7.0611     4.0004 H       
  40 H40           10.1280     5.4967     4.8384 H       
  41 H41           11.0599     5.7945     3.3513 H       
@<TRIPOS>BOND
   1    1    2 ar
   2    1    6 ar
   3    1   23 1
   4    2    3 ar
   5    2   24 1
   6    3    4 ar
   7    3   25 1
   8    4    5 ar
   9    4   26 1
  10    5    6 ar
  11    5    7 1
  12    6   27 1
  13    7    8 1
  14    7   28 1
  15    7   29 1
  16    8    9 1
  17    8   30 1
  18    9   10 1
  19    9   13 2
  20   10   11 1
  21   10   31 1
  22   10   32 1
  23   11   12 1
  24   11   33 1
  25   11   34 1
  26   12   13 1
  27   12   14 am
  28   14   15 2
  29   14   16 1
  30   16   17 ar
  31   16   21 ar
  32   17   18 ar
  33   17   35 1
  34   18   19 ar
  35   18   22 1
  36   19   20 ar
  37   19   36 1
  38   20   21 ar
  39   20   37 1
  40   21   38 1
  41   22   39 1
  42   22   40 1
  43   22   41 1

#	End of record

