#	Name: ASD01901439
#	Creating user name:	WinNT
#	Creation time:	15. 06. 2019 19:53

#	Modifying user name:	WinNT
#	Modification time:	15. 06. 2019 19:53

#	Program:	/corina/corina34_cracker 3.40 0067  02.08.2006

@<TRIPOS>MOLECULE
ASD01901439
  39   42    0    0    0
SMALL
NO_CHARGES


@<TRIPOS>ATOM
   1 C1            -0.0168     1.3887     0.0097 C.ar    
   2 C2             1.1759     2.0943     0.0021 C.ar    
   3 C3             2.3881     1.4103    -0.0132 C.ar    
   4 C4             2.4049     0.0272    -0.0208 C.ar    
   5 C5             1.2194    -0.6814    -0.0132 C.ar    
   6 C6             0.0021    -0.0041     0.0020 C.ar    
   7 C7            -1.2722    -0.7651     0.0106 C.2     
   8 N8            -3.2665    -1.3653     1.1227 N.2     
   9 C9            -2.1423    -0.6918     1.1201 C.2     
  10 C10           -1.6226    -1.5421    -1.0578 C.2     
  11 N11           -2.8004    -2.2278    -1.0177 N.pl3   
  12 C12           -3.6159    -2.1346     0.0807 C.2     
  13 C13           -3.4145    -3.0677    -1.9073 C.2     
  14 C14           -4.5747    -3.4641    -1.3424 C.2     
  15 N15           -4.6812    -2.8919    -0.1395 N.2     
  16 C16           -5.5813    -4.3976    -1.9640 C.3     
  17 O17           -5.1201    -4.8049    -3.2538 O.3     
  18 C18           -5.9157    -5.6529    -3.9529 C.ar    
  19 C19           -5.5189    -6.0890    -5.2103 C.ar    
  20 N20           -7.0594    -6.0607    -3.4281 N.ar    
  21 C21           -7.8625    -6.8847    -4.0735 C.ar    
  22 C22           -7.5339    -7.3539    -5.3300 C.ar    
  23 C23           -6.3396    -6.9540    -5.9132 C.ar    
  24 F24            3.5506     2.0987    -0.0210 F       
  25 N25            1.1616     3.4927     0.0093 N.pl3   
  26 H26           -0.9585     1.9173     0.0260 H       
  27 H27            3.3474    -0.4999    -0.0329 H       
  28 H28            1.2361    -1.7612    -0.0192 H       
  29 H29           -1.8802    -0.0789     1.9698 H       
  30 H30           -0.9767    -1.6116    -1.9206 H       
  31 H31           -3.0413    -3.3581    -2.8782 H       
  32 H32           -5.7044    -5.2746    -1.3285 H       
  33 H33           -6.5379    -3.8851    -2.0654 H       
  34 H34           -4.5825    -5.7573    -5.6342 H       
  35 H35           -8.7884    -7.1966    -3.6133 H       
  36 H36           -8.1970    -8.0283    -5.8515 H       
  37 H37           -6.0570    -7.3099    -6.8929 H       
  38 H38            0.3167     3.9691     0.0196 H       
  39 H39            1.9966     3.9863     0.0039 H       
@<TRIPOS>BOND
   1    1    6 ar
   2    1    2 ar
   3    1   26 1
   4    2    3 ar
   5    2   25 1
   6    3    4 ar
   7    3   24 1
   8    4    5 ar
   9    4   27 1
  10    5    6 ar
  11    5   28 1
  12    6    7 1
  13    7   10 2
  14    7    9 1
  15    8    9 2
  16    8   12 1
  17    9   29 1
  18   10   11 1
  19   10   30 1
  20   11   13 1
  21   11   12 1
  22   12   15 2
  23   13   14 2
  24   13   31 1
  25   14   15 1
  26   14   16 1
  27   16   17 1
  28   16   32 1
  29   16   33 1
  30   17   18 1
  31   18   20 ar
  32   18   19 ar
  33   19   23 ar
  34   19   34 1
  35   20   21 ar
  36   21   22 ar
  37   21   35 1
  38   22   23 ar
  39   22   36 1
  40   23   37 1
  41   25   38 1
  42   25   39 1

#	End of record

