#	Name: ASD01900050
#	Creating user name:	WinNT
#	Creation time:	15. 06. 2019 19:51

#	Modifying user name:	WinNT
#	Modification time:	15. 06. 2019 19:51

#	Program:	/corina/corina34_cracker 3.40 0067  02.08.2006

@<TRIPOS>MOLECULE
ASD01900050
  34   35    0    0    0
SMALL
NO_CHARGES


@<TRIPOS>ATOM
   1 C1            -0.0145     1.2090     0.0133 C.2     
   2 O2             0.0015    -0.0037     0.0046 O.2     
   3 N3             1.1435     1.8984     0.0013 N.am    
   4 C4             2.3633     1.2187     0.0917 C.ar    
   5 C5             3.4749     1.6908    -0.5936 C.ar    
   6 C6             4.6789     1.0178    -0.5023 C.ar    
   7 C7             4.7768    -0.1258     0.2708 C.ar    
   8 C8             3.6705    -0.5983     0.9547 C.ar    
   9 C9             2.4656     0.0742     0.8713 C.ar    
  10 Cl10           3.7975    -2.0333     1.9234 Cl      
  11 Cl11           6.0691     1.6073    -1.3587 Cl      
  12 C12           -1.3294     1.9451     0.0313 C.3     
  13 C13           -2.4850     0.9363     0.0354 C.3     
  14 C14           -3.7986     1.7044    -0.1263 C.3     
  15 C15           -3.8538     2.8448     0.8477 C.2     
  16 C16           -2.8209     3.3224     1.4645 C.2     
  17 C17           -1.4253     2.7960     1.2995 C.3     
  18 C18           -2.3186    -0.0293    -1.1095 C.2     
  19 N19           -3.2238    -1.0092    -1.3017 N.am    
  20 O20           -1.3700     0.0753    -1.8580 O.2     
  21 H21            1.1314     2.8657    -0.0699 H       
  22 H22            3.3988     2.5828    -1.1977 H       
  23 H23            5.7182    -0.6505     0.3402 H       
  24 H24            1.6026    -0.2948     1.4055 H       
  25 H25           -1.4038     2.5838    -0.8488 H       
  26 H26           -2.4928     0.3919     0.9797 H       
  27 H27           -3.8669     2.0934    -1.1423 H       
  28 H28           -4.6358     1.0312     0.0577 H       
  29 H29           -4.8152     3.2952     1.0460 H       
  30 H30           -2.9729     4.1515     2.1397 H       
  31 H31           -1.1646     2.1860     2.1644 H       
  32 H32           -0.7300     3.6323     1.2269 H       
  33 H33           -3.9824    -1.0929    -0.7030 H       
  34 H34           -3.1166    -1.6307    -2.0386 H       
@<TRIPOS>BOND
   1    1    2 2
   2    1    3 am
   3    1   12 1
   4    3    4 1
   5    3   21 1
   6    4    5 ar
   7    4    9 ar
   8    5    6 ar
   9    5   22 1
  10    6    7 ar
  11    6   11 1
  12    7    8 ar
  13    7   23 1
  14    8    9 ar
  15    8   10 1
  16    9   24 1
  17   12   13 1
  18   12   17 1
  19   12   25 1
  20   13   14 1
  21   13   18 1
  22   13   26 1
  23   14   15 1
  24   14   27 1
  25   14   28 1
  26   15   16 2
  27   15   29 1
  28   16   17 1
  29   16   30 1
  30   17   31 1
  31   17   32 1
  32   18   19 am
  33   18   20 2
  34   19   33 1
  35   19   34 1

#	End of record

