#	Name: ASD04430057
#	Creating user name:	WinNT
#	Creation time:	15. 06. 2019 20:49

#	Modifying user name:	WinNT
#	Modification time:	15. 06. 2019 20:49

#	Program:	/corina/corina34_cracker 3.40 0067  02.08.2006

@<TRIPOS>MOLECULE
ASD04430057
  42   44    0    0    0
SMALL
NO_CHARGES


@<TRIPOS>ATOM
   1 C1             0.0089     1.2918     0.1772 C.2     
   2 N2             0.0206    -0.0082     0.1264 N.2     
   3 C3             1.1652    -0.7040     0.0503 C.2     
   4 C4             2.3868    -0.0123     0.0247 C.2     
   5 C5             2.3525     1.4488     0.0828 C.2     
   6 N6             1.1386     2.0433     0.1579 N.am    
   7 N7             2.8616    -2.1585    -0.0781 N.2     
   8 N8             1.4684    -2.0294    -0.0136 N.pl3   
   9 C9             3.4106    -0.9748    -0.0560 C.2     
  10 O10            3.3780     2.1063     0.0640 O.2     
  11 C11            0.5458    -3.0833    -0.0143 C.ar    
  12 C12            0.6597    -4.1072    -0.9457 C.ar    
  13 C13           -0.2513    -5.1450    -0.9435 C.ar    
  14 C14           -1.2765    -5.1653    -0.0154 C.ar    
  15 C15           -1.3926    -4.1474     0.9131 C.ar    
  16 C16           -0.4812    -3.1094     0.9198 C.ar    
  17 C17            1.7758    -4.0855    -1.9580 C.3     
  18 C18           -1.3212     1.9959     0.2551 C.3     
  19 C19           -2.4472     0.9601     0.2576 C.3     
  20 C20           -3.7892     1.6660     0.4619 C.3     
  21 C21           -4.9004     0.6221     0.5892 C.3     
  22 C22           -2.4601     0.2174    -1.0799 C.3     
  23 H23            1.0761     3.0104     0.1980 H       
  24 H24            4.4701    -0.7689    -0.0930 H       
  25 H25           -0.1633    -5.9416    -1.6675 H       
  26 H26           -1.9881    -5.9777    -0.0162 H       
  27 H27           -2.1944    -4.1658     1.6363 H       
  28 H28           -0.5699    -2.3168     1.6479 H       
  29 H29            2.6735    -4.5202    -1.5184 H       
  30 H30            1.4832    -4.6644    -2.8340 H       
  31 H31            1.9781    -3.0561    -2.2538 H       
  32 H32           -1.3674     2.5851     1.1710 H       
  33 H33           -1.4349     2.6540    -0.6064 H       
  34 H34           -2.2843     0.2483     1.0669 H       
  35 H35           -3.7491     2.2667     1.3706 H       
  36 H36           -3.9935     2.3120    -0.3919 H       
  37 H37           -5.8565     1.1251     0.7347 H       
  38 H38           -4.9405     0.0215    -0.3195 H       
  39 H39           -4.6960    -0.0239     1.4431 H       
  40 H40           -3.2623    -0.5206    -1.0781 H       
  41 H41           -2.6230     0.9292    -1.8892 H       
  42 H42           -1.5040    -0.2856    -1.2255 H       
@<TRIPOS>BOND
   1    1    2 2
   2    1    6 1
   3    1   18 1
   4    2    3 1
   5    3    4 2
   6    3    8 1
   7    4    5 1
   8    4    9 1
   9    5    6 am
  10    5   10 2
  11    6   23 1
  12    7    8 1
  13    7    9 2
  14    8   11 1
  15    9   24 1
  16   11   12 ar
  17   11   16 ar
  18   12   13 ar
  19   12   17 1
  20   13   14 ar
  21   13   25 1
  22   14   15 ar
  23   14   26 1
  24   15   16 ar
  25   15   27 1
  26   16   28 1
  27   17   29 1
  28   17   30 1
  29   17   31 1
  30   18   19 1
  31   18   32 1
  32   18   33 1
  33   19   20 1
  34   19   22 1
  35   19   34 1
  36   20   21 1
  37   20   35 1
  38   20   36 1
  39   21   37 1
  40   21   38 1
  41   21   39 1
  42   22   40 1
  43   22   41 1
  44   22   42 1

#	End of record

