#	Name: ASD01914396
#	Creating user name:	WinNT
#	Creation time:	15. 06. 2019 20:03

#	Modifying user name:	WinNT
#	Modification time:	15. 06. 2019 20:03

#	Program:	/corina/corina34_cracker 3.40 0067  02.08.2006

@<TRIPOS>MOLECULE
ASD01914396
  37   39    0    0    0
SMALL
NO_CHARGES


@<TRIPOS>ATOM
   1 C1            -0.0167     1.3806     0.0096 C.ar    
   2 C2             0.0021    -0.0041     0.0020 C.ar    
   3 C3             1.2096    -0.6818    -0.0127 C.ar    
   4 C4             2.3977     0.0225    -0.0202 C.ar    
   5 C5             2.3808     1.4105    -0.0131 C.ar    
   6 C6             1.1693     2.0882     0.0021 C.ar    
   7 N7             3.5864     2.1275    -0.0202 N.pl3   
   8 C8             4.6541     1.9288     0.8136 C.2     
   9 C9             5.6006     2.8367     0.4594 C.2     
  10 C10            6.9349     2.9978     1.0878 C.ar    
  11 C11            7.3554     2.1069     2.0732 C.ar    
  12 C12            8.5975     2.2603     2.6547 C.ar    
  13 C13            9.4257     3.2982     2.2604 C.ar    
  14 C14            9.0117     4.1865     1.2809 C.ar    
  15 C15            7.7739     4.0374     0.6901 C.ar    
  16 N16            5.1123     3.5653    -0.5649 N.2     
  17 C17            3.9140     3.1445    -0.8598 C.2     
  18 C18            3.0347     3.6977    -1.9515 C.3     
  19 C19            2.1908     4.8169    -1.3981 C.2     
  20 O20            2.2939     5.1357    -0.2258 O.co2   
  21 O21            1.4050     5.4035    -2.1226 O.co2   
  22 F22           10.6405     3.4452     2.8329 F       
  23 F23           -1.1591    -0.6946     0.0094 F       
  24 C24            9.9172     5.3138     0.8561 C.3     
  25 H25           -0.9594     1.9075     0.0169 H       
  26 H26            1.2224    -1.7617    -0.0179 H       
  27 H27            3.3392    -0.5064    -0.0313 H       
  28 H28            1.1543     3.1681     0.0073 H       
  29 H29            4.7292     1.1930     1.6006 H       
  30 H30            6.7100     1.2978     2.3817 H       
  31 H31            8.9242     1.5702     3.4185 H       
  32 H32            7.4520     4.7302    -0.0733 H       
  33 H33            3.6570     4.0782    -2.7615 H       
  34 H34            2.3867     2.9078    -2.3314 H       
  35 H35           10.5484     4.9819     0.0318 H       
  36 H36            9.3141     6.1623     0.5331 H       
  37 H37           10.5441     5.6125     1.6963 H       
@<TRIPOS>BOND
   1    1    2 ar
   2    1    6 ar
   3    1   25 1
   4    2    3 ar
   5    2   23 1
   6    3    4 ar
   7    3   26 1
   8    4    5 ar
   9    4   27 1
  10    5    6 ar
  11    5    7 1
  12    6   28 1
  13    7    8 1
  14    7   17 1
  15    8    9 2
  16    8   29 1
  17    9   10 1
  18    9   16 1
  19   10   11 ar
  20   10   15 ar
  21   11   12 ar
  22   11   30 1
  23   12   13 ar
  24   12   31 1
  25   13   14 ar
  26   13   22 1
  27   14   15 ar
  28   14   24 1
  29   15   32 1
  30   16   17 2
  31   17   18 1
  32   18   19 1
  33   18   33 1
  34   18   34 1
  35   19   20 ar
  36   19   21 ar
  37   24   35 1
  38   24   36 1
  39   24   37 1

#	End of record

