#	Name: ASD02500829
#	Creating user name:	WinNT
#	Creation time:	15. 06. 2019 20:23

#	Modifying user name:	WinNT
#	Modification time:	15. 06. 2019 20:23

#	Program:	/corina/corina34_cracker 3.40 0067  02.08.2006

@<TRIPOS>MOLECULE
ASD02500829
  27   30    0    0    0
SMALL
NO_CHARGES


@<TRIPOS>ATOM
   1 C1            -0.0190     1.5532     0.0106 C.3     
   2 C2             0.0021    -0.0041     0.0020 C.3     
   3 C3            -0.5968    -0.3695    -1.3925 C.3     
   4 C4             0.4509     0.1336    -2.3931 C.2     
   5 C5             0.4340     1.4514    -2.3860 C.2     
   6 C6            -0.6261     1.9173    -1.3807 C.3     
   7 C7             1.4474     1.9201    -0.0014 C.2     
   8 N8             2.1858     0.8047    -0.0157 N.am    
   9 C9             1.4780    -0.3304    -0.0153 C.2     
  10 C10            3.5871     0.8239    -0.0295 C.2     
  11 N11            4.3795    -0.2517    -0.0441 N.2     
  12 C12            5.6334     0.1219    -0.0550 C.2     
  13 N13            5.6709     1.4653    -0.0475 N.pl3   
  14 N14            4.3357     1.9006    -0.0359 N.2     
  15 O15            1.8862     3.0502     0.0010 O.2     
  16 O16            1.9476    -1.4480    -0.0275 O.2     
  17 C17           -1.6786     0.7610    -1.5451 C.3     
  18 H18           -0.5627     1.9764     0.8552 H       
  19 H19           -0.5406    -0.4512     0.8349 H       
  20 H20           -0.9296    -1.3997    -1.5192 H       
  21 H21            1.0934    -0.4867    -3.0003 H       
  22 H22            1.0607     2.0942    -2.9865 H       
  23 H23           -0.9851     2.9399    -1.4971 H       
  24 H24            6.4901    -0.5355    -0.0672 H       
  25 H25            6.4638     2.0241    -0.0520 H       
  26 H26           -2.1477     0.7601    -2.5290 H       
  27 H27           -2.4131     0.7475    -0.7397 H       
@<TRIPOS>BOND
   1    1    2 1
   2    1    7 1
   3    1    6 1
   4    1   18 1
   5    2    3 1
   6    2    9 1
   7    2   19 1
   8    3    4 1
   9    3   17 1
  10    3   20 1
  11    4    5 2
  12    4   21 1
  13    5    6 1
  14    5   22 1
  15    6   17 1
  16    6   23 1
  17    7    8 am
  18    7   15 2
  19    8    9 am
  20    8   10 1
  21    9   16 2
  22   10   11 1
  23   10   14 2
  24   11   12 2
  25   12   13 1
  26   12   24 1
  27   13   14 1
  28   13   25 1
  29   17   26 1
  30   17   27 1

#	End of record

