#	Name: ASD01209117
#	Creating user name:	WinNT
#	Creation time:	15. 06. 2019 19:11

#	Modifying user name:	WinNT
#	Modification time:	15. 06. 2019 19:11

#	Program:	/corina/corina34_cracker 3.40 0067  02.08.2006

@<TRIPOS>MOLECULE
ASD01209117
  75   77    0    0    0
SMALL
NO_CHARGES


@<TRIPOS>ATOM
   1 C1            -0.0844     1.4337     0.0265 C.ar    
   2 C2             0.0180     0.0510    -0.0141 C.ar    
   3 C3            -1.1252    -0.7349     0.0264 C.ar    
   4 C4            -2.3738    -0.1409     0.1071 C.ar    
   5 C5            -2.4812     1.2499     0.1482 C.ar    
   6 C6            -1.3288     2.0359     0.1135 C.ar    
   7 O7             1.0383     2.1986    -0.0134 O.3     
   8 C8             0.8566     3.6138    -0.0926 C.3     
   9 C9             2.0905     4.2513    -0.7347 C.3     
  10 O10           -1.0194    -2.0891    -0.0137 O.3     
  11 C11           -1.4886    -2.7334    -1.1143 C.ar    
  12 C12           -1.5180    -4.1202    -1.1480 C.ar    
  13 C13           -3.8115     1.8884     0.2344 C.2     
  14 N14           -4.9230     1.1271     0.2734 N.am    
  15 O15           -3.9030     3.0997     0.2700 O.2     
  16 C16           -6.1661     1.7237     0.3539 C.2     
  17 S17           -6.4524     3.4670     0.4127 S.3     
  18 C18           -8.2683     3.3480     0.5043 C.3     
  19 C19           -8.5237     1.8327     0.4794 C.3     
  20 N20           -7.2837     1.0943     0.3914 N.2     
  21 P21          -10.3971    -0.7238     2.8634 P.3     
  22 O22          -11.6595    -0.0095     3.1572 O.2     
  23 C23          -10.7719    -2.4274     2.3337 C.3     
  24 C24            0.6625     4.1826     1.3144 C.3     
  25 C25           -9.2640     1.4278     1.7557 C.3     
  26 O26           -9.6080     0.0425     1.6877 O.3     
  27 C27           -1.9959    -4.7727    -2.2678 C.ar    
  28 C28           -2.4443    -4.0451    -3.3547 C.ar    
  29 C29           -2.4161    -2.6630    -3.3237 C.ar    
  30 C30           -1.9445    -2.0055    -2.2041 C.ar    
  31 S31           -3.0522    -4.8805    -4.7820 S.o2    
  32 O32           -2.8322    -3.9635    -5.8450 O.2     
  33 O33           -2.3980    -6.1416    -4.7551 O.2     
  34 C34           -4.8281    -5.0778    -4.4689 C.3     
  35 O35           -9.4818    -0.7626     4.1874 O.3     
  36 C36           -9.1048     0.4127     4.9077 C.3     
  37 C37           -9.6304     0.3224     6.3417 C.3     
  38 C38           -7.5795     0.5299     4.9300 C.3     
  39 O39            3.2220     4.0625     0.1174 O.3     
  40 C40            4.4334     4.6236    -0.3923 C.3     
  41 H41            0.9900    -0.4154    -0.0778 H       
  42 H42           -3.2630    -0.7531     0.1379 H       
  43 H43           -1.4075     3.1126     0.1451 H       
  44 H44           -0.0227     3.8339    -0.6980 H       
  45 H45            2.2805     3.7828    -1.7003 H       
  46 H46            1.9162     5.3179    -0.8763 H       
  47 H47           -1.1672    -4.6891    -0.2996 H       
  48 H48           -4.8500     0.1603     0.2449 H       
  49 H49           -8.6361     3.7848     1.4328 H       
  50 H50           -8.7294     3.8299    -0.3578 H       
  51 H51           -9.1434     1.5889    -0.3835 H       
  52 H52          -11.3915    -2.4011     1.4373 H       
  53 H53           -9.8421    -2.9534     2.1173 H       
  54 H54          -11.3061    -2.9462     3.1296 H       
  55 H55            0.5239     5.2621     1.2540 H       
  56 H56           -0.2165     3.7285     1.7718 H       
  57 H57            1.5418     3.9625     1.9198 H       
  58 H58           -8.6212     1.6006     2.6189 H       
  59 H59          -10.1718     2.0232     1.8537 H       
  60 H60           -2.0190    -5.8521    -2.2946 H       
  61 H61           -2.7666    -2.0970    -4.1741 H       
  62 H62           -1.9226    -0.9260    -2.1804 H       
  63 H63           -5.2865    -4.0966    -4.3456 H       
  64 H64           -5.2907    -5.5917    -5.3116 H       
  65 H65           -4.9741    -5.6637    -3.5615 H       
  66 H66           -9.5296     1.2898     4.4196 H       
  67 H67           -9.2057    -0.5548     6.8298 H       
  68 H68           -9.3429     1.2188     6.8912 H       
  69 H69          -10.7171     0.2389     6.3259 H       
  70 H70           -7.2051     0.5942     3.9083 H       
  71 H71           -7.2920     1.4263     5.4794 H       
  72 H72           -7.1548    -0.3473     5.4180 H       
  73 H73            4.6721     4.1628    -1.3509 H       
  74 H74            4.3078     5.6979    -0.5269 H       
  75 H75            5.2443     4.4380     0.3120 H       
@<TRIPOS>BOND
   1    1    2 ar
   2    1    7 1
   3    1    6 ar
   4    2    3 ar
   5    2   41 1
   6    3    4 ar
   7    3   10 1
   8    4    5 ar
   9    4   42 1
  10    5    6 ar
  11    5   13 1
  12    6   43 1
  13    7    8 1
  14    8    9 1
  15    8   24 1
  16    8   44 1
  17    9   39 1
  18    9   45 1
  19    9   46 1
  20   10   11 1
  21   11   12 ar
  22   11   30 ar
  23   12   27 ar
  24   12   47 1
  25   13   14 am
  26   13   15 2
  27   14   16 1
  28   14   48 1
  29   16   17 1
  30   16   20 2
  31   17   18 1
  32   18   19 1
  33   18   49 1
  34   18   50 1
  35   19   20 1
  36   19   25 1
  37   19   51 1
  38   21   22 2
  39   21   23 1
  40   21   35 1
  41   21   26 1
  42   23   52 1
  43   23   53 1
  44   23   54 1
  45   24   55 1
  46   24   56 1
  47   24   57 1
  48   25   26 1
  49   25   58 1
  50   25   59 1
  51   27   28 ar
  52   27   60 1
  53   28   29 ar
  54   28   31 1
  55   29   30 ar
  56   29   61 1
  57   30   62 1
  58   31   32 2
  59   31   33 2
  60   31   34 1
  61   34   63 1
  62   34   64 1
  63   34   65 1
  64   35   36 1
  65   36   37 1
  66   36   38 1
  67   36   66 1
  68   37   67 1
  69   37   68 1
  70   37   69 1
  71   38   70 1
  72   38   71 1
  73   38   72 1
  74   39   40 1
  75   40   73 1
  76   40   74 1
  77   40   75 1

#	End of record

