#	Name: ASD01380021
#	Creating user name:	WinNT
#	Creation time:	15. 06. 2019 19:16

#	Modifying user name:	WinNT
#	Modification time:	15. 06. 2019 19:16

#	Program:	/corina/corina34_cracker 3.40 0067  02.08.2006

@<TRIPOS>MOLECULE
ASD01380021
  66   69    0    0    0
SMALL
NO_CHARGES


@<TRIPOS>ATOM
   1 C1            -1.2992     1.5820    -0.2960 C.3     
   2 N2            -1.0662     0.1361    -0.2617 N.pl3   
   3 C3            -0.3602    -0.4778    -1.2875 C.ar    
   4 C4             0.0120     0.2489    -2.4114 C.ar    
   5 C5             0.7137    -0.3636    -3.4297 C.ar    
   6 C6             1.0521    -1.7045    -3.3413 C.ar    
   7 C7             0.6917    -2.4422    -2.2350 C.ar    
   8 C8            -0.0133    -1.8354    -1.1919 C.ar    
   9 C9            -0.4020    -2.6180    -0.0062 C.2     
  10 O10           -0.9170    -2.0643     0.9452 O.2     
  11 O11           -0.1864    -3.9479     0.0237 O.3     
  12 C12           -0.5946    -4.6550     1.2244 C.3     
  13 C13            0.3096    -5.8799     1.4627 C.3     
  14 C14            1.0179    -5.7490     2.8125 C.3     
  15 O15            1.9404    -6.8285     2.9731 O.3     
  16 P16            2.8613    -7.0077     4.2815 P.3     
  17 O17            2.0051    -7.0270     5.4885 O.2     
  18 O18            3.6756    -8.3928     4.1790 O.3     
  19 P19            4.4102    -9.3405     5.2534 P.3     
  20 O20            3.4248    -9.8088     6.2533 O.2     
  21 N21            5.0828   -10.6664     4.4648 N.3     
  22 P22            5.8622   -11.6849     5.5546 P.3     
  23 O23            6.9435   -10.9408     6.2384 O.2     
  24 O24            4.8031   -12.2154     6.6451 O.3     
  25 O25            6.4906   -12.9380     4.7629 O.3     
  26 O26            5.5736    -8.5101     5.9946 O.3     
  27 O27            3.8993    -5.7809     4.3794 O.3     
  28 O28           -0.5368    -7.0418     1.4655 O.3     
  29 C29           -1.6912    -6.7243     0.6586 C.3     
  30 C30           -2.0093    -5.2571     1.0442 C.3     
  31 O31           -2.7475    -5.1997     2.2664 O.3     
  32 N32           -1.3677    -6.8245    -0.7667 N.pl3   
  33 C33           -0.1204    -6.7649    -1.3175 C.2     
  34 N34           -0.2027    -6.8888    -2.6099 N.2     
  35 C35           -1.5025    -7.0348    -2.9649 C.2     
  36 C36           -2.2605    -7.0011    -1.7888 C.2     
  37 N37           -3.5912    -7.1250    -1.8541 N.2     
  38 C38           -4.2035    -7.2784    -3.0070 C.2     
  39 N39           -5.5702    -7.4009    -3.0244 N.pl3   
  40 N40           -3.5203    -7.3189    -4.1857 N.am    
  41 C41           -2.1737    -7.2050    -4.1983 C.2     
  42 O42           -1.5535    -7.2400    -5.2474 O.2     
  43 H43           -0.3424     2.1040    -0.3062 H       
  44 H44           -1.8624     1.8381    -1.1933 H       
  45 H45           -1.8660     1.8797     0.5861 H       
  46 H46           -1.4052    -0.3924     0.4776 H       
  47 H47           -0.2484     1.2942    -2.4885 H       
  48 H48            1.0007     0.2058    -4.3013 H       
  49 H49            1.6011    -2.1739    -4.1442 H       
  50 H50            0.9578    -3.4870    -2.1717 H       
  51 H51           -0.5685    -3.9882     2.0863 H       
  52 H52            1.0468    -5.9575     0.6635 H       
  53 H53            1.5566    -4.8022     2.8499 H       
  54 H54            0.2802    -5.7792     3.6144 H       
  55 H55            4.3826   -11.1676     3.9388 H       
  56 H56            4.0653   -12.7131     6.2670 H       
  57 H57            6.9562   -13.5681     5.3299 H       
  58 H58            6.2560    -8.1718     5.3989 H       
  59 H59            4.4936    -5.7070     3.6201 H       
  60 H60           -2.5268    -7.3772     0.9105 H       
  61 H61           -2.5477    -4.7522     0.2421 H       
  62 H62           -3.6055    -5.6442     2.2290 H       
  63 H63            0.7974    -6.6341    -0.7634 H       
  64 H64           -6.0702    -7.3737    -2.1937 H       
  65 H65           -6.0362    -7.5147    -3.8675 H       
  66 H66           -4.0027    -7.4338    -5.0194 H       
@<TRIPOS>BOND
   1    1    2 1
   2    1   43 1
   3    1   44 1
   4    1   45 1
   5    2    3 1
   6    2   46 1
   7    3    4 ar
   8    3    8 ar
   9    4    5 ar
  10    4   47 1
  11    5    6 ar
  12    5   48 1
  13    6    7 ar
  14    6   49 1
  15    7    8 ar
  16    7   50 1
  17    8    9 1
  18    9   10 2
  19    9   11 1
  20   11   12 1
  21   12   13 1
  22   12   30 1
  23   12   51 1
  24   13   14 1
  25   13   28 1
  26   13   52 1
  27   14   15 1
  28   14   53 1
  29   14   54 1
  30   15   16 1
  31   16   17 2
  32   16   18 1
  33   16   27 1
  34   18   19 1
  35   19   20 2
  36   19   21 1
  37   19   26 1
  38   21   22 1
  39   21   55 1
  40   22   23 2
  41   22   24 1
  42   22   25 1
  43   24   56 1
  44   25   57 1
  45   26   58 1
  46   27   59 1
  47   28   29 1
  48   29   30 1
  49   29   32 1
  50   29   60 1
  51   30   31 1
  52   30   61 1
  53   31   62 1
  54   32   33 1
  55   32   36 1
  56   33   34 2
  57   33   63 1
  58   34   35 1
  59   35   36 2
  60   35   41 1
  61   36   37 1
  62   37   38 2
  63   38   39 1
  64   38   40 1
  65   39   64 1
  66   39   65 1
  67   40   41 am
  68   40   66 1
  69   41   42 2

#	End of record

