#	Name: ASD09080150
#	Creating user name:	WinNT
#	Creation time:	15. 06. 2019 21:20

#	Modifying user name:	WinNT
#	Modification time:	15. 06. 2019 21:20

#	Program:	/corina/corina34_cracker 3.40 0067  02.08.2006

@<TRIPOS>MOLECULE
ASD09080150
  71   74    0    0    0
SMALL
NO_CHARGES


@<TRIPOS>ATOM
   1 C1             1.2197    -0.1512    -0.6505 C.3     
   2 C2            -1.0152   -10.5600    -1.8330 C.ar    
   3 C3            -0.3795   -10.9234    -3.0077 C.ar    
   4 C4            -0.0362    -9.9603    -3.9407 C.ar    
   5 C5            -0.3276    -8.6309    -3.7037 C.ar    
   6 C6            -0.9673    -8.2601    -2.5228 C.ar    
   7 C7            -1.3155    -9.2339    -1.5892 C.ar    
   8 Cl8           -1.4420   -11.7737    -0.6674 Cl      
   9 Cl9            0.7618   -10.4238    -5.4110 Cl      
  10 C10           -1.2816    -6.8333    -2.2629 C.ar    
  11 C11           -1.9214    -6.4622    -1.0820 C.ar    
  12 C12           -2.2113    -5.1338    -0.8453 C.ar    
  13 C13           -1.8673    -4.1715    -1.7775 C.ar    
  14 C14           -1.2321    -4.5343    -2.9514 C.ar    
  15 C15           -0.9330    -5.8593    -3.1962 C.ar    
  16 C16           -2.1861    -2.7225    -1.5132 C.3     
  17 C17           -1.0131    -2.0675    -0.7811 C.3     
  18 N18           -0.8607    -2.6783     0.5418 N.am    
  19 C19           -1.2827    -0.5697    -0.6233 C.3     
  20 C20           -0.1097     0.0853     0.1088 C.3     
  21 O21            0.1497    -0.5778     1.3695 O.3     
  22 C22            1.5403    -0.3294     1.6361 C.3     
  23 O23            2.2103    -0.0749     0.3945 O.3     
  24 C24            1.6786     0.8871     2.5536 C.3     
  25 C25            2.1604    -1.5532     2.3134 C.3     
  26 C26           -1.8721    -2.6214     1.4308 C.2     
  27 C27           -1.7154    -3.2497     2.7916 C.3     
  28 O28           -2.9083    -2.0645     1.1356 O.2     
  29 O29           -2.9142    -3.0583     3.5455 O.3     
  30 C30           -2.8706    -3.6196     4.8589 C.3     
  31 O31           -1.4313     0.0261    -1.9137 O.3     
  32 C32           -2.2655     1.7915    -3.3050 C.ar    
  33 C33           -3.1965     1.3882    -4.2439 C.ar    
  34 C34           -3.1941     1.9519    -5.5061 C.ar    
  35 C35           -2.2611     2.9193    -5.8293 C.ar    
  36 C36           -1.3307     3.3233    -4.8901 C.ar    
  37 C37           -1.3322     2.7586    -3.6284 C.ar    
  38 C38           -2.2720     1.1815    -1.9270 C.3     
  39 H39            1.2269    -1.1363    -1.1170 H       
  40 H40            1.3829     0.6293    -1.3937 H       
  41 H41           -0.1504   -11.9617    -3.1967 H       
  42 H42           -0.0591    -7.8801    -4.4321 H       
  43 H43           -1.8118    -8.9514    -0.6725 H       
  44 H44           -2.1904    -7.2128    -0.3535 H       
  45 H45           -2.7075    -4.8450     0.0695 H       
  46 H46           -0.9663    -3.7789    -3.6762 H       
  47 H47           -0.4370    -6.1415    -4.1131 H       
  48 H48           -2.3557    -2.2093    -2.4598 H       
  49 H49           -3.0827    -2.6542    -0.8972 H       
  50 H50           -0.0987    -2.2135    -1.3562 H       
  51 H51           -0.0320    -3.1236     0.7778 H       
  52 H52           -2.1971    -0.4237    -0.0482 H       
  53 H53           -0.2904     1.1499     0.2571 H       
  54 H54            1.1588     0.6952     3.4923 H       
  55 H55            2.7337     1.0731     2.7540 H       
  56 H56            1.2417     1.7598     2.0682 H       
  57 H57            2.0667    -2.4183     1.6569 H       
  58 H58            3.2146    -1.3621     2.5143 H       
  59 H59            1.6418    -1.7511     3.2515 H       
  60 H60           -1.5233    -4.3167     2.6791 H       
  61 H61           -0.8798    -2.7831     3.3131 H       
  62 H62           -2.7025    -4.6943     4.7894 H       
  63 H63           -2.0589    -3.1606     5.4234 H       
  64 H64           -3.8171    -3.4319     5.3658 H       
  65 H65           -3.9255     0.6324    -3.9914 H       
  66 H66           -3.9210     1.6362    -6.2398 H       
  67 H67           -2.2588     3.3592    -6.8156 H       
  68 H68           -0.6013     4.0786    -5.1428 H       
  69 H69           -0.6048     3.0737    -2.8949 H       
  70 H70           -3.2894     0.8936    -1.6619 H       
  71 H71           -1.9007     1.9094    -1.2057 H       
@<TRIPOS>BOND
   1    1   20 1
   2    1   23 1
   3    1   39 1
   4    1   40 1
   5    2    3 ar
   6    2    8 1
   7    2    7 ar
   8    3    4 ar
   9    3   41 1
  10    4    5 ar
  11    4    9 1
  12    5    6 ar
  13    5   42 1
  14    6    7 ar
  15    6   10 1
  16    7   43 1
  17   10   11 ar
  18   10   15 ar
  19   11   12 ar
  20   11   44 1
  21   12   13 ar
  22   12   45 1
  23   13   14 ar
  24   13   16 1
  25   14   15 ar
  26   14   46 1
  27   15   47 1
  28   16   17 1
  29   16   48 1
  30   16   49 1
  31   17   18 1
  32   17   19 1
  33   17   50 1
  34   18   26 am
  35   18   51 1
  36   19   31 1
  37   19   20 1
  38   19   52 1
  39   20   21 1
  40   20   53 1
  41   21   22 1
  42   22   23 1
  43   22   24 1
  44   22   25 1
  45   24   54 1
  46   24   55 1
  47   24   56 1
  48   25   57 1
  49   25   58 1
  50   25   59 1
  51   26   27 1
  52   26   28 2
  53   27   29 1
  54   27   60 1
  55   27   61 1
  56   29   30 1
  57   30   62 1
  58   30   63 1
  59   30   64 1
  60   31   38 1
  61   32   33 ar
  62   32   37 ar
  63   32   38 1
  64   33   34 ar
  65   33   65 1
  66   34   35 ar
  67   34   66 1
  68   35   36 ar
  69   35   67 1
  70   36   37 ar
  71   36   68 1
  72   37   69 1
  73   38   70 1
  74   38   71 1

#	End of record

