#	Name: ASD01148766
#	Creating user name:	WinNT
#	Creation time:	15. 06. 2019 19:03

#	Modifying user name:	WinNT
#	Modification time:	15. 06. 2019 19:03

#	Program:	/corina/corina34_cracker 3.40 0067  02.08.2006

@<TRIPOS>MOLECULE
ASD01148766
  60   63    0    0    0
SMALL
NO_CHARGES


@<TRIPOS>ATOM
   1 N1            -0.0155     1.3412     0.0827 N.pl3   
   2 C2             0.0020     0.0055    -0.1104 C.2     
   3 C3             1.3175    -0.4067    -0.1563 C.2     
   4 C4             2.1209     0.7506     0.0195 C.2     
   5 C5             1.2771     1.8041     0.1631 C.2     
   6 C6             1.7971    -1.7843    -0.3498 C.2     
   7 O7             1.0000    -2.6914    -0.4887 O.2     
   8 O8             3.1202    -2.0403    -0.3731 O.3     
   9 C9            -1.1681     2.1320     0.1797 C.ar    
  10 C10           -2.0096     2.0036     1.2769 C.ar    
  11 C11           -3.1446     2.7847     1.3700 C.ar    
  12 C12           -3.4436     3.6942     0.3719 C.ar    
  13 C13           -2.6080     3.8240    -0.7220 C.ar    
  14 C14           -1.4681     3.0495    -0.8180 C.ar    
  15 S15           -4.2132     2.6222     2.7615 S.o2    
  16 O16           -5.4898     3.0854     2.3433 O.2     
  17 O17           -3.9925     1.3205     3.2869 O.2     
  18 N18           -3.6835     3.6874     3.9134 N.am    
  19 C19           -4.2014     5.0617     3.9568 C.3     
  20 C20           -4.7333     5.3439     5.3654 C.3     
  21 C21           -3.6334     5.0541     6.3893 C.3     
  22 C22           -3.2360     3.5783     6.3097 C.3     
  23 C23           -2.6913     3.2744     4.9152 C.3     
  24 C24           -1.2073    -0.8827    -0.2507 C.3     
  25 C25            1.6797     3.2120     0.3703 C.ar    
  26 C26            0.7825     4.1219     0.9310 C.ar    
  27 C27            1.1636     5.4339     1.1218 C.ar    
  28 C28            2.4337     5.8486     0.7581 C.ar    
  29 C29            3.3281     4.9504     0.2008 C.ar    
  30 C30            2.9603     3.6345     0.0110 C.ar    
  31 Cl31           2.9062     7.5012     1.0011 Cl      
  32 C32            3.5210    -3.4222    -0.5681 C.3     
  33 C33            5.0481    -3.5155    -0.5659 C.3     
  34 H34            3.2002     0.7861     0.0359 H       
  35 H35           -1.7768     1.2933     2.0565 H       
  36 H36           -4.3318     4.3040     0.4469 H       
  37 H37           -2.8443     4.5348    -1.5000 H       
  38 H38           -0.8135     3.1545    -1.6705 H       
  39 H39           -3.3998     5.7619     3.7219 H       
  40 H40           -5.0087     5.1710     3.2327 H       
  41 H41           -5.0322     6.3896     5.4387 H       
  42 H42           -5.5933     4.7044     5.5645 H       
  43 H43           -2.7645     5.6762     6.1747 H       
  44 H44           -4.0013     5.2776     7.3907 H       
  45 H45           -2.4692     3.3673     7.0551 H       
  46 H46           -4.1101     2.9554     6.4999 H       
  47 H47           -2.5025     2.2049     4.8233 H       
  48 H48           -1.7640     3.8259     4.7600 H       
  49 H49           -1.4889    -0.9497    -1.3016 H       
  50 H50           -0.9730    -1.8780     0.1268 H       
  51 H51           -2.0348    -0.4628     0.3211 H       
  52 H52           -0.2085     3.7996     1.2148 H       
  53 H53            0.4700     6.1390     1.5554 H       
  54 H54            4.3172     5.2796    -0.0813 H       
  55 H55            3.6604     2.9337    -0.4193 H       
  56 H56            3.1184    -4.0345     0.2387 H       
  57 H57            3.1364    -3.7807    -1.5229 H       
  58 H58            5.4507    -2.9031    -1.3728 H       
  59 H59            5.4326    -3.1569     0.3889 H       
  60 H60            5.3489    -4.5529    -0.7123 H       
@<TRIPOS>BOND
   1    1    2 1
   2    1    5 1
   3    1    9 1
   4    2    3 2
   5    2   24 1
   6    3    4 1
   7    3    6 1
   8    4    5 2
   9    4   34 1
  10    5   25 1
  11    6    7 2
  12    6    8 1
  13    8   32 1
  14    9   10 ar
  15    9   14 ar
  16   10   11 ar
  17   10   35 1
  18   11   12 ar
  19   11   15 1
  20   12   13 ar
  21   12   36 1
  22   13   14 ar
  23   13   37 1
  24   14   38 1
  25   15   16 2
  26   15   17 2
  27   15   18 am
  28   18   19 1
  29   18   23 1
  30   19   20 1
  31   19   39 1
  32   19   40 1
  33   20   21 1
  34   20   41 1
  35   20   42 1
  36   21   22 1
  37   21   43 1
  38   21   44 1
  39   22   23 1
  40   22   45 1
  41   22   46 1
  42   23   47 1
  43   23   48 1
  44   24   49 1
  45   24   50 1
  46   24   51 1
  47   25   26 ar
  48   25   30 ar
  49   26   27 ar
  50   26   52 1
  51   27   28 ar
  52   27   53 1
  53   28   29 ar
  54   28   31 1
  55   29   30 ar
  56   29   54 1
  57   30   55 1
  58   32   33 1
  59   32   56 1
  60   32   57 1
  61   33   58 1
  62   33   59 1
  63   33   60 1

#	End of record

