#	Name: ASD01913867
#	Creating user name:	WinNT
#	Creation time:	15. 06. 2019 20:02

#	Modifying user name:	WinNT
#	Modification time:	15. 06. 2019 20:02

#	Program:	/corina/corina34_cracker 3.40 0067  02.08.2006

@<TRIPOS>MOLECULE
ASD01913867
  44   46    0    0    0
SMALL
NO_CHARGES


@<TRIPOS>ATOM
   1 C1             1.9290     1.2010    -0.0809 C.ar    
   2 C2             1.7465    -0.2192    -0.1001 C.1     
   3 C3             1.5968    -1.3835    -0.1159 C.1     
   4 C4             1.4143    -2.8037    -0.1351 C.ar    
   5 C5             1.5172    -3.5187    -1.3378 C.ar    
   6 C6             1.0546    -5.5067    -0.0910 C.ar    
   7 N7             0.9690    -4.8048     1.0290 N.ar    
   8 C8             1.1368    -3.4988     1.0440 C.ar    
   9 C9             1.3335    -4.8864    -1.3051 C.ar    
  10 C10            1.8249     1.9061     1.1211 C.ar    
  11 C11            2.0024     3.2737     1.1320 C.ar    
  12 C12            2.2179     1.8878    -1.2631 C.ar    
  13 N13            0.8686    -6.8866    -0.0520 N.am    
  14 C14            2.2826     3.9478    -0.0436 C.ar    
  15 C15            2.3929     3.2556    -1.2368 C.ar    
  16 C16           -0.3771    -7.3556    -0.1853 C.2     
  17 O17           -0.6507    -8.6676    -0.1694 O.3     
  18 C18           -0.0995    -9.4495     0.9253 C.3     
  19 C19            1.2226   -10.0642     0.4468 C.3     
  20 C20            1.8529    -9.0833    -0.5575 C.3     
  21 C21            2.0443    -7.7300     0.1256 C.3     
  22 C22            0.1575    -8.5430     2.1308 C.3     
  23 C23           -1.0774   -10.5610     1.3114 C.3     
  24 O24           -1.2904    -6.5665    -0.3249 O.2     
  25 H25            1.7344    -3.0115    -2.2662 H       
  26 H26            1.0595    -2.9602     1.9770 H       
  27 H27            1.4051    -5.4687    -2.2119 H       
  28 H28            1.6056     1.3814     2.0393 H       
  29 H29            1.9223     3.8200     2.0602 H       
  30 H30            2.3042     1.3489    -2.1950 H       
  31 H31            2.4203     5.0189    -0.0291 H       
  32 H32            2.6117     3.7884    -2.1504 H       
  33 H33            1.8925   -10.2072     1.2946 H       
  34 H34            1.0313   -11.0204    -0.0401 H       
  35 H35            2.8194    -9.4663    -0.8850 H       
  36 H36            1.1932    -8.9663    -1.4173 H       
  37 H37            2.9146    -7.2322    -0.3021 H       
  38 H38            2.2091    -7.8863     1.1917 H       
  39 H39           -0.7944    -8.2092     2.5438 H       
  40 H40            0.7091    -9.0965     2.8906 H       
  41 H41            0.7407    -7.6774     1.8167 H       
  42 H42           -1.2457   -11.2112     0.4529 H       
  43 H43           -0.6594   -11.1438     2.1322 H       
  44 H44           -2.0238   -10.1198     1.6241 H       
@<TRIPOS>BOND
   1    1    2 1
   2    1   10 ar
   3    1   12 ar
   4    2    3 3
   5    3    4 1
   6    4    5 ar
   7    4    8 ar
   8    5    9 ar
   9    5   25 1
  10    6    7 ar
  11    6   13 1
  12    6    9 ar
  13    7    8 ar
  14    8   26 1
  15    9   27 1
  16   10   11 ar
  17   10   28 1
  18   11   14 ar
  19   11   29 1
  20   12   15 ar
  21   12   30 1
  22   13   16 am
  23   13   21 1
  24   14   15 ar
  25   14   31 1
  26   15   32 1
  27   16   17 1
  28   16   24 2
  29   17   18 1
  30   18   19 1
  31   18   22 1
  32   18   23 1
  33   19   20 1
  34   19   33 1
  35   19   34 1
  36   20   21 1
  37   20   35 1
  38   20   36 1
  39   21   37 1
  40   21   38 1
  41   22   39 1
  42   22   40 1
  43   22   41 1
  44   23   42 1
  45   23   43 1
  46   23   44 1

#	End of record

