#	Name: ASD03450001
#	Creating user name:	WinNT
#	Creation time:	15. 06. 2019 20:42

#	Modifying user name:	WinNT
#	Modification time:	15. 06. 2019 20:42

#	Program:	/corina/corina34_cracker 3.40 0067  02.08.2006

@<TRIPOS>MOLECULE
ASD03450001
  58   62    0    0    0
SMALL
NO_CHARGES


@<TRIPOS>ATOM
   1 N1            -0.0369     1.4087    -0.2835 N.am    
   2 C2            -0.0000     0.0676    -0.2711 C.2     
   3 N3            -1.1028    -0.6926    -0.1636 N.am    
   4 C4            -2.3629    -0.1055    -0.0581 C.2     
   5 C5            -2.4481     1.3116    -0.0671 C.2     
   6 C6            -1.2031     2.0816    -0.1814 C.2     
   7 N7            -3.5757    -0.5795     0.0559 N.2     
   8 N8            -4.4821     0.4857     0.1245 N.pl3   
   9 C9            -3.7908     1.6451     0.0491 C.2     
  10 C10           -4.3573     3.0095     0.0838 C.ar    
  11 C11           -5.9362     0.3641     0.2555 C.3     
  12 C12           -6.2984     0.2105     1.7102 C.ar    
  13 C13           -6.6384     1.3014     2.4493 C.ar    
  14 C14           -6.9764     1.1789     3.7960 C.ar    
  15 C15           -6.9760    -0.0352     4.4108 C.ar    
  16 C16           -6.6308    -1.1848     3.6798 C.ar    
  17 C17           -6.2923    -1.0609     2.3092 C.ar    
  18 C18           -6.6192    -2.4554     4.2802 C.ar    
  19 C19           -6.2796    -3.5464     3.5409 C.ar    
  20 C20           -5.9415    -3.4239     2.1944 C.ar    
  21 C21           -5.9470    -2.2104     1.5781 C.ar    
  22 C22           -5.3606     3.3953    -0.8134 C.ar    
  23 C23           -5.8611     4.6790    -0.7451 C.ar    
  24 N24           -5.4072     5.5366     0.1488 N.ar    
  25 C25           -4.4633     5.2146     1.0123 C.ar    
  26 C26           -3.9099     3.9509     1.0187 C.ar    
  27 C27           -0.9798    -2.1524    -0.1575 C.3     
  28 C28           -0.8084    -2.6438     1.2813 C.3     
  29 C29           -2.0790    -2.3413     2.0783 C.3     
  30 C30           -0.5555    -4.1528     1.2781 C.3     
  31 O31            1.0794    -0.4845    -0.3616 O.2     
  32 C32            1.2155     2.1592    -0.4043 C.3     
  33 O33           -1.2227     3.2977    -0.1932 O.2     
  34 H34           -6.4131     1.2586    -0.1452 H       
  35 H35           -6.2791    -0.5097    -0.2986 H       
  36 H36           -6.6463     2.2767     1.9856 H       
  37 H37           -7.2421     2.0607     4.3601 H       
  38 H38           -7.2394    -0.1148     5.4552 H       
  39 H39           -6.8782    -2.5654     5.3229 H       
  40 H40           -6.2715    -4.5217     4.0047 H       
  41 H41           -5.6751    -4.3056     1.6305 H       
  42 H42           -5.6831    -2.1307     0.5339 H       
  43 H43           -5.7366     2.6986    -1.5479 H       
  44 H44           -6.6349     4.9862    -1.4330 H       
  45 H45           -4.1217     5.9492     1.7265 H       
  46 H46           -3.1374     3.6943     1.7285 H       
  47 H47           -1.8784    -2.5945    -0.5878 H       
  48 H48           -0.1118    -2.4464    -0.7476 H       
  49 H49            0.0386    -2.1344     1.7408 H       
  50 H50           -2.2592    -1.2663     2.0805 H       
  51 H51           -2.9260    -2.8508     1.6188 H       
  52 H52           -1.9569    -2.6914     3.1033 H       
  53 H53            0.3497    -4.3683     0.7104 H       
  54 H54           -0.4334    -4.5028     2.3031 H       
  55 H55           -1.4025    -4.6622     0.8187 H       
  56 H56            1.4345     2.3333    -1.4578 H       
  57 H57            1.1170     3.1156     0.1092 H       
  58 H58            2.0268     1.5870     0.0457 H       
@<TRIPOS>BOND
   1    1    2 am
   2    1   32 1
   3    1    6 am
   4    2    3 am
   5    2   31 2
   6    3    4 1
   7    3   27 1
   8    4    5 1
   9    4    7 2
  10    5    6 1
  11    5    9 2
  12    6   33 2
  13    7    8 1
  14    8    9 1
  15    8   11 1
  16    9   10 1
  17   10   22 ar
  18   10   26 ar
  19   11   12 1
  20   11   34 1
  21   11   35 1
  22   12   13 ar
  23   12   17 ar
  24   13   14 ar
  25   13   36 1
  26   14   15 ar
  27   14   37 1
  28   15   16 ar
  29   15   38 1
  30   16   17 ar
  31   16   18 ar
  32   17   21 ar
  33   18   19 ar
  34   18   39 1
  35   19   20 ar
  36   19   40 1
  37   20   21 ar
  38   20   41 1
  39   21   42 1
  40   22   23 ar
  41   22   43 1
  42   23   24 ar
  43   23   44 1
  44   24   25 ar
  45   25   26 ar
  46   25   45 1
  47   26   46 1
  48   27   28 1
  49   27   47 1
  50   27   48 1
  51   28   29 1
  52   28   30 1
  53   28   49 1
  54   29   50 1
  55   29   51 1
  56   29   52 1
  57   30   53 1
  58   30   54 1
  59   30   55 1
  60   32   56 1
  61   32   57 1
  62   32   58 1

#	End of record

