#	Name: ASD00170975
#	Creating user name:	WinNT
#	Creation time:	15. 06. 2019 18:32

#	Modifying user name:	WinNT
#	Modification time:	15. 06. 2019 18:32

#	Program:	/corina/corina34_cracker 3.40 0067  02.08.2006

@<TRIPOS>MOLECULE
ASD00170975
  45   48    0    0    0
SMALL
NO_CHARGES


@<TRIPOS>ATOM
   1 C1            -1.5883    -1.3532    -3.6453 C.ar    
   2 C2            -1.0544    -1.8419    -2.4643 C.ar    
   3 C3            -1.7256    -1.6595    -1.2736 C.ar    
   4 C4            -2.9454    -0.9807    -1.2600 C.ar    
   5 C5            -3.4785    -0.4905    -2.4535 C.ar    
   6 C6            -2.7956    -0.6744    -3.6373 C.ar    
   7 C7            -3.6703    -0.7823     0.0136 C.2     
   8 O8            -3.2535    -1.2930     1.0375 O.2     
   9 C9            -4.8881     0.0275     0.0435 C.2     
  10 C10           -6.2202    -0.5210    -0.1001 C.2     
  11 C11           -7.1716     0.3977    -0.0411 C.2     
  12 S12           -6.4862     1.9954     0.1951 S.3     
  13 C13           -4.8922     1.3922     0.2171 C.2     
  14 N14           -3.7615     2.1667     0.3795 N.pl3   
  15 C15           -6.4961    -1.9894    -0.2969 C.3     
  16 N16           -6.4267    -2.6786     0.9985 N.3     
  17 Cl17          -0.7373    -1.5861    -5.1404 Cl      
  18 C18           -7.5062    -2.2369     1.8872 C.3     
  19 C19           -7.4850    -3.0211     3.1730 C.ar    
  20 C20           -6.8053    -4.2148     3.2858 C.ar    
  21 C21           -6.0373    -4.8004     2.1287 C.3     
  22 C22           -6.4771    -4.1387     0.8224 C.3     
  23 C23           -8.1743    -2.5160     4.2659 C.ar    
  24 C24           -8.1842    -3.2028     5.4630 C.ar    
  25 C25           -7.5041    -4.4013     5.5749 C.ar    
  26 C26           -6.8173    -4.9050     4.4886 C.ar    
  27 H27           -0.1108    -2.3671    -2.4761 H       
  28 H28           -1.3085    -2.0413    -0.3534 H       
  29 H29           -4.4220     0.0351    -2.4491 H       
  30 H30           -3.2070    -0.2955    -4.5612 H       
  31 H31           -8.2283     0.1914    -0.1268 H       
  32 H32           -3.8362     3.1333     0.4118 H       
  33 H33           -2.8920     1.7445     0.4613 H       
  34 H34           -7.4905    -2.1182    -0.7242 H       
  35 H35           -5.7526    -2.4113    -0.9732 H       
  36 H36           -7.3783    -1.1776     2.1097 H       
  37 H37           -8.4649    -2.3863     1.3904 H       
  38 H38           -4.9711    -4.6310     2.2793 H       
  39 H39           -6.2277    -5.8722     2.0734 H       
  40 H40           -7.4956    -4.4437     0.5822 H       
  41 H41           -5.8039    -4.4340     0.0176 H       
  42 H42           -8.7059    -1.5799     4.1796 H       
  43 H43           -8.7219    -2.8046     6.3108 H       
  44 H44           -7.5098    -4.9419     6.5099 H       
  45 H45           -6.2862    -5.8413     4.5760 H       
@<TRIPOS>BOND
   1    1    2 ar
   2    1   17 1
   3    1    6 ar
   4    2    3 ar
   5    2   27 1
   6    3    4 ar
   7    3   28 1
   8    4    5 ar
   9    4    7 1
  10    5    6 ar
  11    5   29 1
  12    6   30 1
  13    7    8 2
  14    7    9 1
  15    9   10 1
  16    9   13 2
  17   10   11 2
  18   10   15 1
  19   11   12 1
  20   11   31 1
  21   12   13 1
  22   13   14 1
  23   14   32 1
  24   14   33 1
  25   15   16 1
  26   15   34 1
  27   15   35 1
  28   16   18 1
  29   16   22 1
  30   18   19 1
  31   18   36 1
  32   18   37 1
  33   19   20 ar
  34   19   23 ar
  35   20   21 1
  36   20   26 ar
  37   21   22 1
  38   21   38 1
  39   21   39 1
  40   22   40 1
  41   22   41 1
  42   23   24 ar
  43   23   42 1
  44   24   25 ar
  45   24   43 1
  46   25   26 ar
  47   25   44 1
  48   26   45 1

#	End of record

