#	Name: ASD03330083
#	Creating user name:	WinNT
#	Creation time:	15. 06. 2019 20:36

#	Modifying user name:	WinNT
#	Modification time:	15. 06. 2019 20:36

#	Program:	/corina/corina34_cracker 3.40 0067  02.08.2006

@<TRIPOS>MOLECULE
ASD03330083
  28   29    0    0    0
SMALL
NO_CHARGES


@<TRIPOS>ATOM
   1 N1            -0.0167     1.3776     0.0096 N.pl3   
   2 C2             0.0021    -0.0041     0.0020 C.2     
   3 C3             1.2925    -0.4318    -0.0126 C.2     
   4 C4             2.1259     0.7124    -0.0144 C.ar    
   5 C5             3.5158     0.8902    -0.0267 C.ar    
   6 C6             4.0390     2.1512    -0.0249 C.ar    
   7 C7             3.2047     3.2634    -0.0110 C.ar    
   8 C8             1.8363     3.1139     0.0017 C.ar    
   9 C9             1.2791     1.8379    -0.0003 C.ar    
  10 C10           -1.1829    -0.8720     0.0087 C.2     
  11 O11           -1.0513    -2.0806     0.0014 O.2     
  12 O12           -2.4169    -0.3283     0.0228 O.3     
  13 C13            1.7531    -1.8667    -0.0242 C.3     
  14 C14            1.8956    -2.3448    -1.4706 C.3     
  15 C15            2.3632    -3.8016    -1.4824 C.3     
  16 Cl16           5.7613     2.3680    -0.0396 Cl      
  17 H17           -0.8128     1.9317     0.0165 H       
  18 H18            4.1714     0.0320    -0.0372 H       
  19 H19            3.6343     4.2543    -0.0098 H       
  20 H20            1.1966     3.9840     0.0132 H       
  21 H21           -3.1660    -0.9398     0.0267 H       
  22 H22            2.7162    -1.9432     0.4803 H       
  23 H23            1.0215    -2.4873     0.4932 H       
  24 H24            0.9324    -2.2683    -1.9752 H       
  25 H25            2.6272    -1.7242    -1.9880 H       
  26 H26            2.4647    -4.1422    -2.5128 H       
  27 H27            3.3263    -3.8781    -0.9779 H       
  28 H28            1.6316    -4.4222    -0.9650 H       
@<TRIPOS>BOND
   1    1    2 1
   2    1    9 1
   3    1   17 1
   4    2    3 2
   5    2   10 1
   6    3    4 1
   7    3   13 1
   8    4    5 ar
   9    4    9 ar
  10    5    6 ar
  11    5   18 1
  12    6    7 ar
  13    6   16 1
  14    7    8 ar
  15    7   19 1
  16    8    9 ar
  17    8   20 1
  18   10   11 2
  19   10   12 1
  20   12   21 1
  21   13   14 1
  22   13   22 1
  23   13   23 1
  24   14   15 1
  25   14   24 1
  26   14   25 1
  27   15   26 1
  28   15   27 1
  29   15   28 1

#	End of record

