#	Name: ASD04030001
#	Creating user name:	WinNT
#	Creation time:	15. 06. 2019 20:48

#	Modifying user name:	WinNT
#	Modification time:	15. 06. 2019 20:48

#	Program:	/corina/corina34_cracker 3.40 0067  02.08.2006

@<TRIPOS>MOLECULE
ASD04030001
  92   99    0    0    0
SMALL
NO_CHARGES


@<TRIPOS>ATOM
   1 C1             0.7449     1.1725     0.1496 C.3     
   2 O2             0.2040    -0.1238    -0.1130 O.3     
   3 C3             0.6939    -0.7898    -1.1913 C.ar    
   4 C4             1.5986    -0.2014    -2.0650 C.ar    
   5 C5             2.1002    -0.8761    -3.1657 C.ar    
   6 C6             1.7338    -2.1777    -3.4652 C.ar    
   7 C7             0.8282    -2.7902    -2.6005 C.ar    
   8 C8             0.3168    -2.1115    -1.4781 C.ar    
   9 C9            -0.5784    -3.0438    -0.8392 C.2     
  10 C10           -0.5744    -4.2136    -1.5704 C.2     
  11 N11            0.2816    -4.0593    -2.6096 N.pl3   
  12 C12            0.6940    -4.9997    -3.6726 C.3     
  13 C13           -0.4654    -5.9060    -3.9880 C.2     
  14 C14           -1.2969    -6.7483    -4.6196 C.2     
  15 C15           -1.7236    -6.3402    -3.2967 C.2     
  16 C16           -2.2769    -6.0622    -2.0593 C.2     
  17 C17           -1.4784    -5.2930    -1.0611 C.3     
  18 C18           -2.4037    -4.7014     0.0100 C.3     
  19 C19           -3.2899    -5.8120     0.5789 C.3     
  20 C20           -4.0930    -6.4233    -0.5396 C.2     
  21 C21           -3.5786    -6.5265    -1.7683 C.2     
  22 C22           -1.5745    -4.1025     1.1166 C.2     
  23 O23           -0.4262    -4.4592     1.2750 O.2     
  24 N24           -2.1090    -3.1705     1.9303 N.am    
  25 C25           -1.4460    -2.4000     3.0121 C.3     
  26 C26           -2.4746    -2.4145     4.1676 C.3     
  27 C27           -3.8408    -2.5899     3.4711 C.3     
  28 C28           -3.5024    -2.6596     1.9588 C.3     
  29 C29           -3.4728    -1.2194     1.4208 C.3     
  30 N30           -2.6687    -0.3877     2.3271 N.3     
  31 C31           -1.3205    -0.9493     2.5179 C.3     
  32 C32           -2.6028     0.9998     1.8491 C.3     
  33 C33           -1.5820    -7.5454    -5.8326 C.2     
  34 O34           -0.8016    -7.5339    -6.7649 O.2     
  35 N35           -2.7067    -8.2845    -5.9043 N.am    
  36 S36           -3.0259    -9.1769    -7.2622 S.o2    
  37 O37           -4.2479    -9.8591    -7.0161 O.2     
  38 O38           -2.8305    -8.3073    -8.3690 O.2     
  39 N39           -1.8537   -10.3417    -7.3701 N.am    
  40 C40           -2.0546   -11.6445    -6.7310 C.3     
  41 C41           -0.6157   -10.0692    -8.1045 C.3     
  42 C42            2.2871    -2.8969    -4.6683 C.3     
  43 C43            1.3511    -2.6908    -5.8609 C.3     
  44 C44            1.9129    -3.4210    -7.0823 C.3     
  45 C45            3.2973    -2.8628    -7.4182 C.3     
  46 C46            4.2333    -3.0690    -6.2256 C.3     
  47 C47            3.6715    -2.3387    -5.0041 C.3     
  48 H48            1.8011     1.0811     0.4026 H       
  49 H49            0.6363     1.7979    -0.7366 H       
  50 H50            0.2097     1.6275     0.9831 H       
  51 H51            1.9205     0.8129    -1.8809 H       
  52 H52            2.8009    -0.3696    -3.8129 H       
  53 H53           -1.1521    -2.8587     0.0569 H       
  54 H54            0.9759    -4.4418    -4.5656 H       
  55 H55            1.5398    -5.5942    -3.3272 H       
  56 H56           -0.8491    -6.0152    -0.5409 H       
  57 H57           -3.0297    -3.9287    -0.4362 H       
  58 H58           -2.6649    -6.5772     1.0392 H       
  59 H59           -3.9648    -5.3933     1.3254 H       
  60 H60           -5.0923    -6.7847    -0.3467 H       
  61 H61           -4.1725    -6.9685    -2.5547 H       
  62 H62           -0.4885    -2.8318     3.3032 H       
  63 H63           -2.2801    -3.2509     4.8390 H       
  64 H64           -2.4450    -1.4722     4.7146 H       
  65 H65           -4.3191    -3.5126     3.7997 H       
  66 H66           -4.4840    -1.7339     3.6751 H       
  67 H67           -4.1898    -3.3023     1.4087 H       
  68 H68           -3.0275    -1.2107     0.4260 H       
  69 H69           -4.4887    -0.8276     1.3709 H       
  70 H70           -0.7816    -0.3604     3.2602 H       
  71 H71           -0.7797    -0.9296     1.5717 H       
  72 H72           -3.6132     1.3855     1.7131 H       
  73 H73           -2.0758     1.6117     2.5811 H       
  74 H74           -2.0707     1.0316     0.8983 H       
  75 H75           -3.3293    -8.2936    -5.1605 H       
  76 H76           -2.5373   -12.3234    -7.4340 H       
  77 H77           -1.0902   -12.0556    -6.4328 H       
  78 H78           -2.6860   -11.5239    -5.8507 H       
  79 H79            0.1241    -9.6458    -7.4252 H       
  80 H80           -0.2318   -10.9979    -8.5267 H       
  81 H81           -0.8183    -9.3612    -8.9081 H       
  82 H82            2.3680    -3.9617    -4.4497 H       
  83 H83            0.3648    -3.0885    -5.6216 H       
  84 H84            1.2702    -1.6260    -6.0795 H       
  85 H85            1.9937    -4.4858    -6.8637 H       
  86 H86            1.2460    -3.2742    -7.9320 H       
  87 H87            3.6975    -3.3831    -8.2884 H       
  88 H88            3.2164    -1.7980    -7.6368 H       
  89 H89            4.3141    -4.1338    -6.0070 H       
  90 H90            5.2196    -2.6713    -6.4648 H       
  91 H91            3.5907    -1.2739    -5.2227 H       
  92 H92            4.3384    -2.4856    -4.1545 H       
@<TRIPOS>BOND
   1    1    2 1
   2    1   48 1
   3    1   49 1
   4    1   50 1
   5    2    3 1
   6    3    4 ar
   7    3    8 ar
   8    4    5 ar
   9    4   51 1
  10    5    6 ar
  11    5   52 1
  12    6    7 ar
  13    6   42 1
  14    7    8 ar
  15    7   11 1
  16    8    9 1
  17    9   10 2
  18    9   53 1
  19   10   11 1
  20   10   17 1
  21   11   12 1
  22   12   13 1
  23   12   54 1
  24   12   55 1
  25   13   14 2
  26   13   15 1
  27   14   15 1
  28   14   33 1
  29   15   16 2
  30   16   17 1
  31   16   21 1
  32   17   18 1
  33   17   56 1
  34   18   19 1
  35   18   22 1
  36   18   57 1
  37   19   20 1
  38   19   58 1
  39   19   59 1
  40   20   21 2
  41   20   60 1
  42   21   61 1
  43   22   23 2
  44   22   24 am
  45   24   25 1
  46   24   28 1
  47   25   26 1
  48   25   31 1
  49   25   62 1
  50   26   27 1
  51   26   63 1
  52   26   64 1
  53   27   28 1
  54   27   65 1
  55   27   66 1
  56   28   29 1
  57   28   67 1
  58   29   30 1
  59   29   68 1
  60   29   69 1
  61   30   31 1
  62   30   32 1
  63   31   70 1
  64   31   71 1
  65   32   72 1
  66   32   73 1
  67   32   74 1
  68   33   34 2
  69   33   35 am
  70   35   36 am
  71   35   75 1
  72   36   37 2
  73   36   38 2
  74   36   39 am
  75   39   40 1
  76   39   41 1
  77   40   76 1
  78   40   77 1
  79   40   78 1
  80   41   79 1
  81   41   80 1
  82   41   81 1
  83   42   43 1
  84   42   47 1
  85   42   82 1
  86   43   44 1
  87   43   83 1
  88   43   84 1
  89   44   45 1
  90   44   85 1
  91   44   86 1
  92   45   46 1
  93   45   87 1
  94   45   88 1
  95   46   47 1
  96   46   89 1
  97   46   90 1
  98   47   91 1
  99   47   92 1

#	End of record

