#	Name: ASD01913900
#	Creating user name:	WinNT
#	Creation time:	15. 06. 2019 20:02

#	Modifying user name:	WinNT
#	Modification time:	15. 06. 2019 20:02

#	Program:	/corina/corina34_cracker 3.40 0067  02.08.2006

@<TRIPOS>MOLECULE
ASD01913900
  41   43    0    0    0
SMALL
NO_CHARGES


@<TRIPOS>ATOM
   1 C1            -0.0173     1.4278     0.0099 C.ar    
   2 C2             0.0021    -0.0041     0.0020 C.1     
   3 C3             0.0180    -1.1779    -0.0044 C.1     
   4 C4             0.0374    -2.6098    -0.0123 C.ar    
   5 C5            -1.1552    -3.3455    -0.0049 C.ar    
   6 C6             0.0738    -5.2913    -0.0270 C.ar    
   7 N7             1.2234    -4.6330    -0.0401 N.ar    
   8 C8             1.2495    -3.3127    -0.0335 C.ar    
   9 N9            -1.0934    -4.6646    -0.0125 N.ar    
  10 C10            1.1815     2.1454     0.0023 C.ar    
  11 C11            1.1575     3.5245     0.0100 C.ar    
  12 C12           -1.2356     2.1128     0.0194 C.ar    
  13 C13           -0.0520     4.1995     0.0252 C.ar    
  14 C14           -1.2473     3.4932     0.0270 C.ar    
  15 N15            0.0926    -6.6794    -0.0346 N.am    
  16 C16            1.1946    -7.4405    -0.0540 C.2     
  17 N17            0.9456    -8.7567    -0.0575 N.am    
  18 C18           -0.5088    -8.9732    -0.0383 C.3     
  19 C19           -1.0940    -7.5477    -0.0162 C.3     
  20 O20            2.3191    -6.9787    -0.0677 O.2     
  21 C21           -0.9566    -9.7238    -1.2940 C.3     
  22 C22           -0.9215    -9.7371     1.2215 C.3     
  23 C23            1.9608    -9.8127    -0.0772 C.3     
  24 F24           -0.0687     5.5504     0.0327 F       
  25 F25           -2.4235     4.1577     0.0419 F       
  26 H26           -2.1103    -2.8414     0.0073 H       
  27 H27            2.1905    -2.7828    -0.0446 H       
  28 H28            2.1256     1.6211    -0.0092 H       
  29 H29            2.0840     4.0794     0.0045 H       
  30 H30           -2.1655     1.5635     0.0204 H       
  31 H31           -1.6781    -7.3879     0.8902 H       
  32 H32           -1.7043    -7.3709    -0.9019 H       
  33 H33           -0.4755   -10.7014    -1.3239 H       
  34 H34           -2.0389    -9.8519    -1.2742 H       
  35 H35           -0.6746    -9.1528    -2.1786 H       
  36 H36           -0.6147    -9.1754     2.1038 H       
  37 H37           -2.0039    -9.8652     1.2306 H       
  38 H38           -0.4398   -10.7149     1.2276 H       
  39 H39            2.9533    -9.3623    -0.0883 H       
  40 H40            1.8544   -10.4357     0.8108 H       
  41 H41            1.8300   -10.4257    -0.9690 H       
@<TRIPOS>BOND
   1    1    2 1
   2    1   10 ar
   3    1   12 ar
   4    2    3 3
   5    3    4 1
   6    4    5 ar
   7    4    8 ar
   8    5    9 ar
   9    5   26 1
  10    6    7 ar
  11    6   15 1
  12    6    9 ar
  13    7    8 ar
  14    8   27 1
  15   10   11 ar
  16   10   28 1
  17   11   13 ar
  18   11   29 1
  19   12   14 ar
  20   12   30 1
  21   13   14 ar
  22   13   24 1
  23   14   25 1
  24   15   16 am
  25   15   19 1
  26   16   17 am
  27   16   20 2
  28   17   18 1
  29   17   23 1
  30   18   19 1
  31   18   21 1
  32   18   22 1
  33   19   31 1
  34   19   32 1
  35   21   33 1
  36   21   34 1
  37   21   35 1
  38   22   36 1
  39   22   37 1
  40   22   38 1
  41   23   39 1
  42   23   40 1
  43   23   41 1

#	End of record

