#	Name: ASD01814481
#	Creating user name:	WinNT
#	Creation time:	15. 06. 2019 19:32

#	Modifying user name:	WinNT
#	Modification time:	15. 06. 2019 19:32

#	Program:	/corina/corina34_cracker 3.40 0067  02.08.2006

@<TRIPOS>MOLECULE
ASD01814481
  55   60    0    0    0
SMALL
NO_CHARGES


@<TRIPOS>ATOM
   1 C1            -0.0167     1.3807     0.0096 C.ar    
   2 C2             0.0021    -0.0041     0.0020 C.ar    
   3 N3             1.1326    -0.6807    -0.0124 N.ar    
   4 C4             2.3086    -0.0710    -0.0203 C.ar    
   5 C5             2.3610     1.3370    -0.0133 C.ar    
   6 C6             1.1830     2.0750     0.0019 C.ar    
   7 N7             3.4841    -0.7903    -0.0349 N.pl3   
   8 N8             4.6482    -0.2533    -0.0428 N.2     
   9 C9             4.8546     1.0371    -0.0378 C.2     
  10 C10            3.6943     1.9627    -0.0222 C.2     
  11 C11            3.3984    -2.2528    -0.0414 C.3     
  12 C12            3.3557    -2.7472    -1.4644 C.ar    
  13 C13            4.5315    -3.0469    -2.1372 C.ar    
  14 C14            4.4487    -3.4983    -3.4434 C.ar    
  15 C15            3.1946    -3.6352    -4.0340 C.ar    
  16 N16            2.0938    -3.3373    -3.3559 N.ar    
  17 C17            2.1440    -2.9118    -2.1101 C.ar    
  18 C18            3.0890    -4.1177    -5.4328 C.ar    
  19 C19            6.0309     1.9106    -0.0435 C.2     
  20 N20            5.5600     3.1761    -0.0322 N.am    
  21 N21            4.1629     3.1751    -0.0197 N.2     
  22 O22            7.2002     1.5644    -0.0556 O.2     
  23 C23            6.3586     4.3264    -0.0330 C.ar    
  24 C24            7.3183     4.5195    -1.0240 C.ar    
  25 C25            8.0841     5.6726    -0.9828 C.ar    
  26 C26            7.8727     6.5882     0.0332 C.ar    
  27 N27            6.9552     6.3749     0.9576 N.ar    
  28 C28            6.2013     5.2936     0.9509 C.ar    
  29 C29            5.1675     5.0986     2.0299 C.3     
  30 C30            1.8395    -4.2614    -6.0420 C.ar    
  31 C31            1.7947    -4.7147    -7.3494 C.ar    
  32 C32            2.9765    -5.0081    -8.0044 C.ar    
  33 N33            4.1417    -4.8625    -7.4031 N.ar    
  34 C34            4.2345    -4.4294    -6.1627 C.ar    
  35 C35            2.9329    -5.5024    -9.4274 C.3     
  36 Cl36           8.8278     8.0366     0.0930 Cl      
  37 H37           -0.9559     1.9138     0.0170 H       
  38 H38           -0.9338    -0.5431     0.0084 H       
  39 H39            1.2020     3.1548     0.0072 H       
  40 H40            4.2704    -2.6700     0.4622 H       
  41 H41            2.4936    -2.5661     0.4794 H       
  42 H42            5.4898    -2.9304    -1.6530 H       
  43 H43            5.3440    -3.7405    -3.9968 H       
  44 H44            1.2269    -2.6789    -1.5894 H       
  45 H45            7.4619     3.7876    -1.8051 H       
  46 H46            8.8376     5.8551    -1.7347 H       
  47 H47            4.2229     5.5399     1.7120 H       
  48 H48            5.0279     4.0328     2.2109 H       
  49 H49            5.5040     5.5819     2.9471 H       
  50 H50            0.9319    -4.0251    -5.5064 H       
  51 H51            0.8468    -4.8383    -7.8520 H       
  52 H52            5.2065    -4.3233    -5.7043 H       
  53 H53            2.9754    -4.6526   -10.1087 H       
  54 H54            3.7842    -6.1579    -9.6106 H       
  55 H55            2.0074    -6.0541    -9.5922 H       
@<TRIPOS>BOND
   1    1    2 ar
   2    1    6 ar
   3    1   37 1
   4    2    3 ar
   5    2   38 1
   6    3    4 ar
   7    4    5 ar
   8    4    7 1
   9    5    6 ar
  10    5   10 1
  11    6   39 1
  12    7    8 1
  13    7   11 1
  14    8    9 2
  15    9   10 1
  16    9   19 1
  17   10   21 2
  18   11   12 1
  19   11   40 1
  20   11   41 1
  21   12   13 ar
  22   12   17 ar
  23   13   14 ar
  24   13   42 1
  25   14   15 ar
  26   14   43 1
  27   15   16 ar
  28   15   18 1
  29   16   17 ar
  30   17   44 1
  31   18   30 ar
  32   18   34 ar
  33   19   20 am
  34   19   22 2
  35   20   21 1
  36   20   23 1
  37   23   24 ar
  38   23   28 ar
  39   24   25 ar
  40   24   45 1
  41   25   26 ar
  42   25   46 1
  43   26   27 ar
  44   26   36 1
  45   27   28 ar
  46   28   29 1
  47   29   47 1
  48   29   48 1
  49   29   49 1
  50   30   31 ar
  51   30   50 1
  52   31   32 ar
  53   31   51 1
  54   32   33 ar
  55   32   35 1
  56   33   34 ar
  57   34   52 1
  58   35   53 1
  59   35   54 1
  60   35   55 1

#	End of record

