#	Name: ASD01410533
#	Creating user name:	WinNT
#	Creation time:	15. 06. 2019 19:18

#	Modifying user name:	WinNT
#	Modification time:	15. 06. 2019 19:18

#	Program:	/corina/corina34_cracker 3.40 0067  02.08.2006

@<TRIPOS>MOLECULE
ASD01410533
  71   74    0    0    0
SMALL
NO_CHARGES


@<TRIPOS>ATOM
   1 C1             1.4047     3.8027    -2.3186 C.ar    
   2 C2             2.3265     3.8210    -3.3560 C.ar    
   3 C3             3.4883     3.0835    -3.2406 C.ar    
   4 N4             3.7292     2.3659    -2.1601 N.ar    
   5 C5             2.8752     2.3231    -1.1506 C.ar    
   6 C6             1.6866     3.0401    -1.1984 C.ar    
   7 O7             3.1632     1.5718    -0.0583 O.3     
   8 C8             4.2860     0.8055    -0.0886 C.ar    
   9 C9             5.5367     1.4105    -0.1233 C.ar    
  10 C10            6.6828     0.6421    -0.1542 C.ar    
  11 C11            6.5935    -0.7429    -0.1513 C.ar    
  12 C12            5.3337    -1.3600    -0.1164 C.ar    
  13 C13            4.1798    -0.5734    -0.0791 C.ar    
  14 N14            7.7514    -1.5185    -0.1835 N.am    
  15 C15            8.1808    -2.0403    -1.3496 C.2     
  16 C16            8.5016    -1.7663     1.0502 C.3     
  17 O17            9.1454    -2.7753    -1.3664 O.2     
  18 C18            7.4624    -1.7104    -2.6326 C.3     
  19 C19            7.9132    -2.6745    -3.7319 C.3     
  20 C20            7.1838    -2.3396    -5.0345 C.3     
  21 C21            7.5129    -0.9040    -5.4487 C.3     
  22 C22            7.0622     0.0601    -4.3494 C.3     
  23 C23            7.7915    -0.2748    -3.0468 C.3     
  24 C24            6.7835    -0.5691    -6.7513 C.3     
  25 C25            9.8743    -1.1551     0.9349 C.ar    
  26 C26            7.7611    -1.1377     2.2324 C.3     
  27 C27           10.9600    -1.7828     1.5137 C.ar    
  28 C28           12.2236    -1.2198     1.4068 C.ar    
  29 C29           12.3931    -0.0275     0.7185 C.ar    
  30 C30           11.3039     0.5964     0.1412 C.ar    
  31 C31           10.0467     0.0307     0.2447 C.ar    
  32 O32           13.2933    -1.8353     1.9758 O.3     
  33 C33           14.5638    -1.1985     1.8255 C.3     
  34 C34            0.7168     2.9883    -0.0461 C.3     
  35 F35           -0.3938     3.7886    -0.3349 F       
  36 F36            0.3005     1.6678     0.1541 F       
  37 F37            1.3432     3.4605     1.1123 F       
  38 C38            5.2286    -2.8302    -0.1135 C.2     
  39 O39            6.2327    -3.5109    -0.0447 O.2     
  40 O40            4.0189    -3.4193    -0.1873 O.3     
  41 H41            0.4904     4.3741    -2.3820 H       
  42 H42            2.1370     4.4055    -4.2442 H       
  43 H43            4.2087     3.0941    -4.0452 H       
  44 H44            5.6122     2.4879    -0.1264 H       
  45 H45            7.6511     1.1196    -0.1810 H       
  46 H46            3.2067    -1.0410    -0.0521 H       
  47 H47            8.5944    -2.8406     1.2094 H       
  48 H48            6.3872    -1.8078    -2.4824 H       
  49 H49            8.9884    -2.5771    -3.8821 H       
  50 H50            7.6787    -3.6972    -3.4368 H       
  51 H51            7.5049    -3.0264    -5.8176 H       
  52 H52            6.1086    -2.4370    -4.8842 H       
  53 H53            8.5881    -0.8066    -5.5989 H       
  54 H54            7.2966     1.0828    -4.6445 H       
  55 H55            5.9870    -0.0373    -4.1992 H       
  56 H56            7.4704     0.4120    -2.2637 H       
  57 H57            8.8667    -0.1774    -3.1971 H       
  58 H58            5.7083    -0.6665    -6.6011 H       
  59 H59            7.0180     0.4537    -7.0464 H       
  60 H60            7.1047    -1.2559    -7.5344 H       
  61 H61            6.8020    -1.6375     2.3676 H       
  62 H62            8.3595    -1.2489     3.1366 H       
  63 H63            7.5944    -0.0787     2.0350 H       
  64 H64           10.8254    -2.7109     2.0494 H       
  65 H65           13.3756     0.4129     0.6341 H       
  66 H66           11.4353     1.5248    -0.3948 H       
  67 H67            9.1965     0.5200    -0.2071 H       
  68 H68           14.8044    -1.1133     0.7658 H       
  69 H69           14.5268    -0.2043     2.2708 H       
  70 H70           15.3292    -1.7923     2.3253 H       
  71 H71            4.0004    -4.3861    -0.1822 H       
@<TRIPOS>BOND
   1    1    2 ar
   2    1    6 ar
   3    1   41 1
   4    2    3 ar
   5    2   42 1
   6    3    4 ar
   7    3   43 1
   8    4    5 ar
   9    5    6 ar
  10    5    7 1
  11    6   34 1
  12    7    8 1
  13    8    9 ar
  14    8   13 ar
  15    9   10 ar
  16    9   44 1
  17   10   11 ar
  18   10   45 1
  19   11   12 ar
  20   11   14 1
  21   12   13 ar
  22   12   38 1
  23   13   46 1
  24   14   15 am
  25   14   16 1
  26   15   17 2
  27   15   18 1
  28   16   26 1
  29   16   25 1
  30   16   47 1
  31   18   19 1
  32   18   23 1
  33   18   48 1
  34   19   20 1
  35   19   49 1
  36   19   50 1
  37   20   21 1
  38   20   51 1
  39   20   52 1
  40   21   22 1
  41   21   24 1
  42   21   53 1
  43   22   23 1
  44   22   54 1
  45   22   55 1
  46   23   56 1
  47   23   57 1
  48   24   58 1
  49   24   59 1
  50   24   60 1
  51   25   27 ar
  52   25   31 ar
  53   26   61 1
  54   26   62 1
  55   26   63 1
  56   27   28 ar
  57   27   64 1
  58   28   29 ar
  59   28   32 1
  60   29   30 ar
  61   29   65 1
  62   30   31 ar
  63   30   66 1
  64   31   67 1
  65   32   33 1
  66   33   68 1
  67   33   69 1
  68   33   70 1
  69   34   35 1
  70   34   36 1
  71   34   37 1
  72   38   39 2
  73   38   40 1
  74   40   71 1

#	End of record

