#	Name: ASD04560184
#	Creating user name:	WinNT
#	Creation time:	15. 06. 2019 20:49

#	Modifying user name:	WinNT
#	Modification time:	15. 06. 2019 20:49

#	Program:	/corina/corina34_cracker 3.40 0067  02.08.2006

@<TRIPOS>MOLECULE
ASD04560184
  59   61    0    0    0
SMALL
NO_CHARGES


@<TRIPOS>ATOM
   1 C1            -1.6776     0.2069    -0.2566 C.ar    
   2 C2            -1.3033    -1.1078    -0.3019 C.ar    
   3 C3             0.0457    -1.4402    -0.1762 C.ar    
   4 N4             0.9677    -0.4997    -0.0139 N.ar    
   5 C5             0.6506     0.7768     0.0351 C.ar    
   6 C6            -0.6810     1.1819    -0.0839 C.ar    
   7 C7            -1.0349     2.6106    -0.0294 C.2     
   8 O8            -2.1959     2.9533    -0.1338 O.2     
   9 O9            -0.0694     3.5394     0.1365 O.3     
  10 C10           -0.4600     4.8255     0.1776 C.2     
  11 O11           -1.6303     5.1052     0.0681 O.2     
  12 C12           -0.1408     7.2769     0.3721 C.3     
  13 C13            0.5619     5.9179     0.3603 C.3     
  14 S14            0.5322    -3.1328    -0.2333 S.3     
  15 C15            2.3213    -2.9527    -0.0263 C.3     
  16 C16            2.9686    -4.3135    -0.0442 C.ar    
  17 C17            3.3254    -4.9009    -1.2567 C.ar    
  18 C18            3.9243    -6.1598    -1.2659 C.ar    
  19 C19            4.1604    -6.8171    -0.0763 C.ar    
  20 C20            3.8036    -6.2294     1.1247 C.ar    
  21 C21            3.2143    -4.9778     1.1401 C.ar    
  22 B22            3.0535    -4.1479    -2.6072 Du      
  23 O23            3.7226    -4.5287    -3.8083 O.3     
  24 O24            2.1256    -3.0661    -2.6712 O.3     
  25 C25            1.2968     5.7122     1.6864 C.3     
  26 C26            1.5673     5.8736    -0.7921 C.3     
  27 C27            1.1952    -3.2006    -3.7528 C.3     
  28 C28            1.9713    -3.4318    -5.0527 C.3     
  29 C29            2.8239    -4.6922    -4.9124 C.3     
  30 C30            0.9866    -3.6117    -6.2099 C.3     
  31 C31            2.8718    -2.2266    -5.3309 C.3     
  32 H32           -2.7153     0.4894    -0.3560 H       
  33 H33           -2.0453    -1.8815    -0.4333 H       
  34 H34            1.4259     1.5168     0.1683 H       
  35 H35           -0.8571     7.3084     1.1931 H       
  36 H36            0.5983     8.0670     0.5043 H       
  37 H37           -0.6644     7.4234    -0.5726 H       
  38 H38            2.7223    -2.3488    -0.8403 H       
  39 H39            2.5296    -2.4638     0.9254 H       
  40 H40            4.2025    -6.6197    -2.2026 H       
  41 H41            4.6243    -7.7924    -0.0822 H       
  42 H42            3.9900    -6.7477     2.0537 H       
  43 H43            2.9381    -4.5235     2.0802 H       
  44 H44            0.5805     5.7437     2.5074 H       
  45 H45            1.7974     4.7440     1.6780 H       
  46 H46            2.0359     6.5023     1.8186 H       
  47 H47            2.3065     6.6637    -0.6600 H       
  48 H48            2.0680     4.9054    -0.8005 H       
  49 H49            1.0438     6.0202    -1.7369 H       
  50 H50            0.5376    -4.0493    -3.5647 H       
  51 H51            0.6022    -2.2901    -3.8391 H       
  52 H52            3.3990    -4.8470    -5.8253 H       
  53 H53            2.1775    -5.5521    -4.7367 H       
  54 H54            0.3732    -2.7160    -6.3076 H       
  55 H55            1.5392    -3.7762    -7.1349 H       
  56 H56            0.3460    -4.4710    -6.0116 H       
  57 H57            3.5737    -2.0996    -4.5066 H       
  58 H58            3.4240    -2.3915    -6.2561 H       
  59 H59            2.2594    -1.3302    -5.4280 H       
@<TRIPOS>BOND
   1    1    2 ar
   2    1    6 ar
   3    1   32 1
   4    2    3 ar
   5    2   33 1
   6    3    4 ar
   7    3   14 1
   8    4    5 ar
   9    5    6 ar
  10    5   34 1
  11    6    7 1
  12    7    8 2
  13    7    9 1
  14    9   10 1
  15   10   11 2
  16   10   13 1
  17   12   13 1
  18   12   35 1
  19   12   36 1
  20   12   37 1
  21   13   25 1
  22   13   26 1
  23   14   15 1
  24   15   16 1
  25   15   38 1
  26   15   39 1
  27   16   17 ar
  28   16   21 ar
  29   17   18 ar
  30   17   22 1
  31   18   19 ar
  32   18   40 1
  33   19   20 ar
  34   19   41 1
  35   20   21 ar
  36   20   42 1
  37   21   43 1
  38   22   23 1
  39   22   24 1
  40   23   29 1
  41   24   27 1
  42   25   44 1
  43   25   45 1
  44   25   46 1
  45   26   47 1
  46   26   48 1
  47   26   49 1
  48   27   28 1
  49   27   50 1
  50   27   51 1
  51   28   29 1
  52   28   30 1
  53   28   31 1
  54   29   52 1
  55   29   53 1
  56   30   54 1
  57   30   55 1
  58   30   56 1
  59   31   57 1
  60   31   58 1
  61   31   59 1

#	End of record

