#	Name: ASD01912127
#	Creating user name:	WinNT
#	Creation time:	15. 06. 2019 19:59

#	Modifying user name:	WinNT
#	Modification time:	15. 06. 2019 19:59

#	Program:	/corina/corina34_cracker 3.40 0067  02.08.2006

@<TRIPOS>MOLECULE
ASD01912127
  44   47    0    0    0
SMALL
NO_CHARGES


@<TRIPOS>ATOM
   1 C1            -0.0187     1.5262     0.0104 C.3     
   2 C2             0.0021    -0.0041     0.0020 C.3     
   3 C3            -1.4330    -0.5353    -0.0203 C.3     
   4 C4            -2.1656    -0.0686     1.2416 C.3     
   5 N5            -2.0651     1.3943     1.3330 N.am    
   6 C6            -0.7353     2.0162     1.2726 C.3     
   7 C7            -5.2264     1.2893     0.3541 C.ar    
   8 C8            -4.5002     1.5124     1.5288 C.ar    
   9 C9            -3.1717     2.1515     1.4697 C.2     
  10 C10           -6.4704     0.6903     0.4187 C.ar    
  11 C11           -6.9978     0.3124     1.6401 C.ar    
  12 C12           -6.2865     0.5288     2.8063 C.ar    
  13 C13           -5.0410     1.1265     2.7600 C.ar    
  14 O14           -3.0751     3.3612     1.5443 O.2     
  15 C15            1.3949     2.0484    -0.0003 C.2     
  16 O16            2.3349     1.8138     0.9207 O.3     
  17 N17            3.3643     2.3789     0.6169 N.2     
  18 C18            3.2063     3.0262    -0.5084 C.2     
  19 N19            1.9348     2.8128    -0.9165 N.2     
  20 C20            4.2317     3.8383    -1.2089 C.ar    
  21 C21            5.5104     3.9655    -0.6698 C.ar    
  22 C22            6.4610     4.7211    -1.3246 C.ar    
  23 C23            6.1456     5.3535    -2.5165 C.ar    
  24 C24            4.8753     5.2297    -3.0561 C.ar    
  25 C25            3.9205     4.4713    -2.4108 C.ar    
  26 F26            7.0791     6.0933    -3.1541 F       
  27 F27           -4.3480     1.3375     3.9004 F       
  28 F28           -4.7156     1.6631    -0.8395 F       
  29 H29           -0.5468     1.8877    -0.8719 H       
  30 H30            0.5330    -0.3552    -0.8828 H       
  31 H31            0.5091    -0.3653     0.8967 H       
  32 H32           -1.9483    -0.1543    -0.9020 H       
  33 H33           -1.4172    -1.6248    -0.0499 H       
  34 H34           -3.2144    -0.3599     1.1840 H       
  35 H35           -1.7060    -0.5221     2.1198 H       
  36 H36           -0.1590     1.7328     2.1533 H       
  37 H37           -0.8403     3.1005     1.2355 H       
  38 H38           -7.0324     0.5173    -0.4872 H       
  39 H39           -7.9705    -0.1548     1.6834 H       
  40 H40           -6.7060     0.2313     3.7559 H       
  41 H41            5.7569     3.4735     0.2596 H       
  42 H42            7.4522     4.8202    -0.9074 H       
  43 H43            4.6335     5.7245    -3.9852 H       
  44 H44            2.9308     4.3750    -2.8323 H       
@<TRIPOS>BOND
   1    1    2 1
   2    1   15 1
   3    1    6 1
   4    1   29 1
   5    2    3 1
   6    2   30 1
   7    2   31 1
   8    3    4 1
   9    3   32 1
  10    3   33 1
  11    4    5 1
  12    4   34 1
  13    4   35 1
  14    5    6 1
  15    5    9 am
  16    6   36 1
  17    6   37 1
  18    7    8 ar
  19    7   10 ar
  20    7   28 1
  21    8    9 1
  22    8   13 ar
  23    9   14 2
  24   10   11 ar
  25   10   38 1
  26   11   12 ar
  27   11   39 1
  28   12   13 ar
  29   12   40 1
  30   13   27 1
  31   15   16 1
  32   15   19 2
  33   16   17 1
  34   17   18 2
  35   18   19 1
  36   18   20 1
  37   20   21 ar
  38   20   25 ar
  39   21   22 ar
  40   21   41 1
  41   22   23 ar
  42   22   42 1
  43   23   24 ar
  44   23   26 1
  45   24   25 ar
  46   24   43 1
  47   25   44 1

#	End of record

