#	Name: ASD03912016
#	Creating user name:	WinNT
#	Creation time:	15. 06. 2019 20:47

#	Modifying user name:	WinNT
#	Modification time:	15. 06. 2019 20:47

#	Program:	/corina/corina34_cracker 3.40 0067  02.08.2006

@<TRIPOS>MOLECULE
ASD03912016
  46   48    0    0    0
SMALL
NO_CHARGES


@<TRIPOS>ATOM
   1 C1            -0.4956     1.9607     1.2549 C.ar    
   2 C2            -0.2013     0.8432     0.4956 C.ar    
   3 C3            -1.1654     0.2995    -0.3382 C.ar    
   4 C4            -2.4200     0.8682    -0.4154 C.ar    
   5 C5            -2.7186     1.9908     0.3460 C.ar    
   6 C6            -1.7512     2.5371     1.1769 C.ar    
   7 C7             0.7146     2.3559     2.0740 C.3     
   8 C8             1.6302     1.1133     2.0673 C.3     
   9 C9             1.2268     0.4116     0.7531 C.3     
  10 N10           -3.9893     2.5719     0.2713 N.am    
  11 C11           -5.0804     1.7919     0.1391 C.2     
  12 C12           -6.4553     2.4079     0.1703 C.3     
  13 O13           -4.9556     0.5940    -0.0048 O.2     
  14 C14           -7.4934     1.3284     0.0028 C.ar    
  15 C15           -8.0077     0.6871     1.1146 C.ar    
  16 C16           -8.9593    -0.3029     0.9638 C.ar    
  17 C17           -9.3990    -0.6534    -0.3045 C.ar    
  18 C18           -8.8814    -0.0084    -1.4184 C.ar    
  19 C19           -7.9340     0.9848    -1.2619 C.ar    
  20 O20          -10.3347    -1.6273    -0.4555 O.3     
  21 C21          -10.7333    -2.3322     0.7219 C.3     
  22 C22          -11.9097    -1.6061     1.3774 C.3     
  23 C23          -11.1503    -3.7324     0.3521 C.2     
  24 O24          -11.1103    -4.0899    -0.8014 O.2     
  25 O25          -11.5661    -4.5823     1.3041 O.3     
  26 H26           -0.9334    -0.5732    -0.9306 H       
  27 H27           -3.1684     0.4415    -1.0668 H       
  28 H28           -1.9810     3.4100     1.7700 H       
  29 H29            1.2231     3.2028     1.6133 H       
  30 H30            0.4175     2.6012     3.0937 H       
  31 H31            2.6799     1.4057     2.0440 H       
  32 H32            1.4236     0.4752     2.9265 H       
  33 H33            1.2795    -0.6707     0.8707 H       
  34 H34            1.8729     0.7361    -0.0626 H       
  35 H35           -4.0848     3.5362     0.3146 H       
  36 H36           -6.6061     2.9120     1.1249 H       
  37 H37           -6.5483     3.1302    -0.6407 H       
  38 H38           -7.6649     0.9600     2.1017 H       
  39 H39           -9.3605    -0.8038     1.8324 H       
  40 H40           -9.2220    -0.2795    -2.4068 H       
  41 H41           -7.5307     1.4872    -2.1287 H       
  42 H42           -9.8976    -2.3745     1.4204 H       
  43 H43          -12.2137    -2.1438     2.2755 H       
  44 H44          -11.6081    -0.5933     1.6449 H       
  45 H45          -12.7454    -1.5638     0.6789 H       
  46 H46          -11.8233    -5.4696     1.0186 H       
@<TRIPOS>BOND
   1    1    2 ar
   2    1    7 1
   3    1    6 ar
   4    2    3 ar
   5    2    9 1
   6    3    4 ar
   7    3   26 1
   8    4    5 ar
   9    4   27 1
  10    5    6 ar
  11    5   10 1
  12    6   28 1
  13    7    8 1
  14    7   29 1
  15    7   30 1
  16    8    9 1
  17    8   31 1
  18    8   32 1
  19    9   33 1
  20    9   34 1
  21   10   11 am
  22   10   35 1
  23   11   12 1
  24   11   13 2
  25   12   14 1
  26   12   36 1
  27   12   37 1
  28   14   15 ar
  29   14   19 ar
  30   15   16 ar
  31   15   38 1
  32   16   17 ar
  33   16   39 1
  34   17   18 ar
  35   17   20 1
  36   18   19 ar
  37   18   40 1
  38   19   41 1
  39   20   21 1
  40   21   22 1
  41   21   23 1
  42   21   42 1
  43   22   43 1
  44   22   44 1
  45   22   45 1
  46   23   24 2
  47   23   25 1
  48   25   46 1

#	End of record

