#	Name: ASD03730283
#	Creating user name:	WinNT
#	Creation time:	15. 06. 2019 20:44

#	Modifying user name:	WinNT
#	Modification time:	15. 06. 2019 20:44

#	Program:	/corina/corina34_cracker 3.40 0067  02.08.2006

@<TRIPOS>MOLECULE
ASD03730283
  58   63    0    0    0
SMALL
NO_CHARGES


@<TRIPOS>ATOM
   1 N1            -0.1658     1.4023     0.3387 N.3     
   2 C2            -0.1357    -0.0791     0.3512 C.3     
   3 O3             1.0778    -0.3941    -0.3549 O.3     
   4 C4             1.9207     0.6644    -0.1752 C.ar    
   5 C5             1.1890     1.7752     0.2428 C.ar    
   6 C6             3.2919     0.7686    -0.3384 C.ar    
   7 C7             3.9438     1.9735    -0.0940 C.ar    
   8 C8             3.1987     3.0775     0.3092 C.ar    
   9 C9             1.8337     2.9776     0.4813 C.ar    
  10 O10            5.2714     2.2777    -0.1744 O.3     
  11 C11            4.1677     4.2194     0.4581 C.3     
  12 C12            5.4271     3.7076    -0.2547 C.3     
  13 N13            3.6382     6.4130     0.8198 N.am    
  14 C14            3.6527     5.4874    -0.1601 C.2     
  15 C15            4.4362     4.5588     1.8940 C.ar    
  16 C16            4.9178     3.8360     2.9767 C.ar    
  17 C17            5.0578     4.4564     4.2177 C.ar    
  18 C18            4.7154     5.7865     4.3604 C.ar    
  19 C19            4.2363     6.5045     3.2837 C.ar    
  20 C20            4.0925     5.8985     2.0368 C.ar    
  21 O21            3.3163     5.6474    -1.3143 O.2     
  22 C22           -0.7703     1.9270     1.5704 C.3     
  23 C23            0.1727     1.6754     2.7487 C.3     
  24 C24           -0.4569     2.2219     4.0316 C.3     
  25 C25            0.4861     1.9703     5.2098 C.3     
  26 C26           -0.1435     2.5168     6.4927 C.3     
  27 C27            5.2831     2.4071     2.8139 C.ar    
  28 C28            6.6241     2.0320     2.7345 C.ar    
  29 C29            6.9577     0.7003     2.5830 C.ar    
  30 C30            5.9646    -0.2598     2.5100 C.ar    
  31 C31            4.6334     0.1072     2.5878 C.ar    
  32 C32            4.2882     1.4345     2.7455 C.ar    
  33 Cl33           7.8711     3.2364     2.8254 Cl      
  34 H34           -0.0934    -0.4538     1.3739 H       
  35 H35           -1.0012    -0.4853    -0.1723 H       
  36 H36            3.8601    -0.0925    -0.6576 H       
  37 H37            1.2666     3.8389     0.8023 H       
  38 H38            6.3267     4.0291     0.2702 H       
  39 H39            5.4450     4.0374    -1.2935 H       
  40 H40            3.3466     7.3297     0.6945 H       
  41 H41            5.4321     3.8989     5.0636 H       
  42 H42            4.8230     6.2680     5.3212 H       
  43 H43            3.9710     7.5440     3.4081 H       
  44 H44           -0.9408     2.9983     1.4638 H       
  45 H45           -1.7203     1.4242     1.7517 H       
  46 H46            0.3431     0.6041     2.8554 H       
  47 H47            1.1227     2.1782     2.5675 H       
  48 H48           -0.6273     3.2932     3.9249 H       
  49 H49           -1.4069     1.7192     4.2128 H       
  50 H50            0.6565     0.8990     5.3165 H       
  51 H51            1.4361     2.4731     5.0286 H       
  52 H52            0.5283     2.3376     7.3321 H       
  53 H53           -0.3139     3.5881     6.3860 H       
  54 H54           -1.0935     2.0141     6.6739 H       
  55 H55            7.9956     0.4082     2.5210 H       
  56 H56            6.2298    -1.3000     2.3915 H       
  57 H57            3.8624    -0.6468     2.5295 H       
  58 H58            3.2484     1.7188     2.8113 H       
@<TRIPOS>BOND
   1    1    2 1
   2    1    5 1
   3    1   22 1
   4    2    3 1
   5    2   34 1
   6    2   35 1
   7    3    4 1
   8    4    5 ar
   9    4    6 ar
  10    5    9 ar
  11    6    7 ar
  12    6   36 1
  13    7    8 ar
  14    7   10 1
  15    8    9 ar
  16    8   11 1
  17    9   37 1
  18   10   12 1
  19   11   12 1
  20   11   14 1
  21   11   15 1
  22   12   38 1
  23   12   39 1
  24   13   14 am
  25   13   20 1
  26   13   40 1
  27   14   21 2
  28   15   16 ar
  29   15   20 ar
  30   16   17 ar
  31   16   27 1
  32   17   18 ar
  33   17   41 1
  34   18   19 ar
  35   18   42 1
  36   19   20 ar
  37   19   43 1
  38   22   23 1
  39   22   44 1
  40   22   45 1
  41   23   24 1
  42   23   46 1
  43   23   47 1
  44   24   25 1
  45   24   48 1
  46   24   49 1
  47   25   26 1
  48   25   50 1
  49   25   51 1
  50   26   52 1
  51   26   53 1
  52   26   54 1
  53   27   28 ar
  54   27   32 ar
  55   28   29 ar
  56   28   33 1
  57   29   30 ar
  58   29   55 1
  59   30   31 ar
  60   30   56 1
  61   31   32 ar
  62   31   57 1
  63   32   58 1

#	End of record

