#	Name: ASD03430517
#	Creating user name:	WinNT
#	Creation time:	15. 06. 2019 20:41

#	Modifying user name:	WinNT
#	Modification time:	15. 06. 2019 20:41

#	Program:	/corina/corina34_cracker 3.40 0067  02.08.2006

@<TRIPOS>MOLECULE
ASD03430517
  35   38    0    0    0
SMALL
NO_CHARGES


@<TRIPOS>ATOM
   1 N1            -0.0161     1.3395     0.0094 N.am    
   2 C2             0.0021    -0.0041     0.0020 C.2     
   3 C3             1.4548    -0.4298    -0.0141 C.3     
   4 C4             2.2197     0.8737    -0.0144 C.ar    
   5 C5             3.5641     1.1705    -0.0263 C.ar    
   6 C6             3.9795     2.4906    -0.0239 C.ar    
   7 C7             3.0415     3.5068    -0.0095 C.ar    
   8 C8             1.6940     3.2122     0.0024 C.ar    
   9 C9             1.2680     1.8853     0.0001 C.ar    
  10 O10           -0.9637    -0.7377     0.0076 O.2     
  11 C11            0.6805     4.3274     0.0181 C.3     
  12 F12            1.3430     5.5596     0.0176 F       
  13 F13           -0.1325     4.2346    -1.1166 F       
  14 F14           -0.1098     4.2233     1.1678 F       
  15 O15            2.7533    -3.6328     4.4230 O.3     
  16 C16            3.5460    -4.6053     3.7166 C.3     
  17 O17            3.0499    -4.5356     2.3667 O.3     
  18 C18            2.5680    -3.2658     2.2206 C.ar    
  19 C19            2.3859    -2.7112     3.4854 C.ar    
  20 C20            2.2659    -2.5237     1.0911 C.ar    
  21 C21            1.7830    -1.2343     1.2172 C.ar    
  22 C22            1.6007    -0.6803     2.4751 C.ar    
  23 C23            1.9022    -1.4195     3.6093 C.ar    
  24 O24            1.1265     0.5883     2.5968 O.3     
  25 O25            1.7436    -1.1801    -1.1956 O.3     
  26 H26           -0.8287     1.8692     0.0162 H       
  27 H27            4.2935     0.3741    -0.0372 H       
  28 H28            5.0333     2.7266    -0.0329 H       
  29 H29            3.3659     4.5370    -0.0072 H       
  30 H30            4.6018    -4.3368     3.7510 H       
  31 H31            3.3894    -5.6012     4.1312 H       
  32 H32            2.4068    -2.9532     0.1102 H       
  33 H33            1.7599    -0.9877     4.5890 H       
  34 H34            0.1625     0.6445     2.6490 H       
  35 H35            1.2345    -1.9982    -1.2762 H       
@<TRIPOS>BOND
   1    1    2 am
   2    1    9 1
   3    1   26 1
   4    2    3 1
   5    2   10 2
   6    3    4 1
   7    3   21 1
   8    3   25 1
   9    4    5 ar
  10    4    9 ar
  11    5    6 ar
  12    5   27 1
  13    6    7 ar
  14    6   28 1
  15    7    8 ar
  16    7   29 1
  17    8    9 ar
  18    8   11 1
  19   11   12 1
  20   11   13 1
  21   11   14 1
  22   15   16 1
  23   15   19 1
  24   16   17 1
  25   16   30 1
  26   16   31 1
  27   17   18 1
  28   18   19 ar
  29   18   20 ar
  30   19   23 ar
  31   20   21 ar
  32   20   32 1
  33   21   22 ar
  34   22   23 ar
  35   22   24 1
  36   23   33 1
  37   24   34 1
  38   25   35 1

#	End of record

