#	Name: ASD01820125
#	Creating user name:	WinNT
#	Creation time:	15. 06. 2019 19:36

#	Modifying user name:	WinNT
#	Modification time:	15. 06. 2019 19:36

#	Program:	/corina/corina34_cracker 3.40 0067  02.08.2006

@<TRIPOS>MOLECULE
ASD01820125
  63   66    0    0    0
SMALL
NO_CHARGES


@<TRIPOS>ATOM
   1 C1             0.0012     1.5085     0.0442 C.3     
   2 C2             0.0187    -0.0211     0.0152 C.3     
   3 C3             0.7194    -0.4991    -1.2582 C.3     
   4 N4             2.1273    -0.0960    -1.2215 N.am    
   5 C5             2.4874     1.1337    -1.6396 C.2     
   6 O6             1.6605     1.8722    -2.1403 O.2     
   7 C7             3.8804     1.5827    -1.4906 C.2     
   8 C8             4.2876     2.7925    -2.0124 C.2     
   9 N9             5.5492     3.2338    -1.8955 N.pl3   
  10 C10            6.5334     2.5197    -1.2489 C.ar    
  11 N11            7.7662     3.0047    -1.1623 N.ar    
  12 C12            8.7299     2.3402    -0.5469 C.ar    
  13 N13            9.9998     2.8909    -0.4840 N.3     
  14 C14           10.2041     3.6042     0.7906 C.3     
  15 C15           10.9179     4.7063    -0.0046 C.3     
  16 C16           10.5872     6.1267     0.4578 C.3     
  17 O17           11.3016     7.0678    -0.3460 O.3     
  18 C18           12.4166     4.4678    -0.1991 C.3     
  19 O19           12.9777     5.5480    -0.9478 O.3     
  20 C20           10.0417     4.2012    -1.1596 C.3     
  21 C21            8.4947     1.0939     0.0421 C.ar    
  22 F22            9.4954     0.4343     0.6656 F       
  23 C23            7.2396     0.5485    -0.0190 C.ar    
  24 C24            6.2359     1.2708    -0.6757 C.ar    
  25 C25            4.8635     0.7514    -0.7762 C.2     
  26 O26            4.5541    -0.3239    -0.2923 O.2     
  27 C27            5.8800     4.4755    -2.4562 C.ar    
  28 C28            6.3249     4.5495    -3.7712 C.ar    
  29 F29            6.4390     3.4247    -4.5107 F       
  30 C30            6.6501     5.7761    -4.3219 C.ar    
  31 C31            6.5329     6.9295    -3.5646 C.ar    
  32 F32            6.8508     8.1261    -4.1053 F       
  33 C33            6.0901     6.8589    -2.2545 C.ar    
  34 C34            5.7584     5.6358    -1.7001 C.ar    
  35 F35            5.3215     5.5682    -0.4235 F       
  36 C36            0.6275    -2.0236    -1.3493 C.3     
  37 F37            1.2474    -2.5956    -0.2332 F       
  38 F38           -0.7170    -2.4085    -1.3843 F       
  39 C39            1.3282    -2.5016    -2.6227 C.3     
  40 F40            2.6727    -2.1166    -2.5877 F       
  41 F41            1.2442    -3.8956    -2.7059 F       
  42 F42            0.7083    -1.9295    -3.7388 F       
  43 H43            1.0244     1.8839     0.0297 H       
  44 H44           -0.5353     1.8823    -0.8279 H       
  45 H45           -0.4979     1.8490     0.9514 H       
  46 H46            0.5553    -0.3949     0.8873 H       
  47 H47           -1.0045    -0.3965     0.0297 H       
  48 H48            0.2364    -0.0534    -2.1278 H       
  49 H49            2.8005    -0.7141    -0.8964 H       
  50 H50            3.5666     3.4052    -2.5331 H       
  51 H51            9.2760     3.9362     1.2559 H       
  52 H52           10.8584     3.0757     1.4839 H       
  53 H53            9.5161     6.3017     0.3565 H       
  54 H54           10.8777     6.2459     1.5016 H       
  55 H55           11.1396     7.9910    -0.1083 H       
  56 H56           12.9043     4.4082     0.7739 H       
  57 H57           12.5688     3.5335    -0.7396 H       
  58 H58           13.9273     5.4632    -1.1093 H       
  59 H59           10.5585     4.1788    -2.1190 H       
  60 H60            9.0703     4.6926    -1.2147 H       
  61 H61            7.0299    -0.4122     0.4276 H       
  62 H62            6.9960     5.8341    -5.3433 H       
  63 H63            5.9997     7.7601    -1.6663 H       
@<TRIPOS>BOND
   1    1    2 1
   2    1   43 1
   3    1   44 1
   4    1   45 1
   5    2    3 1
   6    2   46 1
   7    2   47 1
   8    3    4 1
   9    3   36 1
  10    3   48 1
  11    4    5 am
  12    4   49 1
  13    5    6 2
  14    5    7 1
  15    7   25 1
  16    7    8 2
  17    8    9 1
  18    8   50 1
  19    9   10 1
  20    9   27 1
  21   10   24 ar
  22   10   11 ar
  23   11   12 ar
  24   12   13 1
  25   12   21 ar
  26   13   20 1
  27   13   14 1
  28   14   15 1
  29   14   51 1
  30   14   52 1
  31   15   16 1
  32   15   18 1
  33   15   20 1
  34   16   17 1
  35   16   53 1
  36   16   54 1
  37   17   55 1
  38   18   19 1
  39   18   56 1
  40   18   57 1
  41   19   58 1
  42   20   59 1
  43   20   60 1
  44   21   22 1
  45   21   23 ar
  46   23   24 ar
  47   23   61 1
  48   24   25 1
  49   25   26 2
  50   27   34 ar
  51   27   28 ar
  52   28   29 1
  53   28   30 ar
  54   30   31 ar
  55   30   62 1
  56   31   32 1
  57   31   33 ar
  58   33   34 ar
  59   33   63 1
  60   34   35 1
  61   36   37 1
  62   36   38 1
  63   36   39 1
  64   39   40 1
  65   39   41 1
  66   39   42 1

#	End of record

