#	Name: ASD04910305
#	Creating user name:	WinNT
#	Creation time:	15. 06. 2019 20:55

#	Modifying user name:	WinNT
#	Modification time:	15. 06. 2019 20:55

#	Program:	/corina/corina34_cracker 3.40 0067  02.08.2006

@<TRIPOS>MOLECULE
ASD04910305
  63   65    0    0    0
SMALL
NO_CHARGES


@<TRIPOS>ATOM
   1 C1            -0.3131     1.4259     0.1241 C.2     
   2 C2            -0.2447    -0.0794     0.1059 C.3     
   3 C3             1.2186    -0.5229     0.0504 C.3     
   4 O4             0.7042     2.0772     0.0957 O.2     
   5 O5            -1.5043     2.0431     0.1664 O.3     
   6 C6             2.4810    -2.6060    -0.0154 C.2     
   7 C7             2.5481    -4.0827    -0.0333 C.ar    
   8 C8             3.7841    -4.7387    -0.0832 C.ar    
   9 C9             3.7922    -6.1221    -0.0976 C.ar    
  10 C10            2.5904    -6.8067    -0.0626 C.ar    
  11 N11            1.4404    -6.1618    -0.0159 N.ar    
  12 C12            1.3810    -4.8463     0.0050 C.ar    
  13 O13            3.5043    -1.9507    -0.0441 O.2     
  14 N14            1.2851    -1.9862     0.0326 N.am    
  15 C15            2.5950    -8.3136    -0.0786 C.3     
  16 C16            1.8111    -8.8388     1.1258 C.3     
  17 C17            1.9202   -10.3640     1.1796 C.3     
  18 C18            1.1364   -10.8892     2.3840 C.3     
  19 O19            1.9845    -8.7790    -1.2840 O.3     
  20 C20            2.4698    -9.9319    -1.8162 C.ar    
  21 C21            3.5648   -10.5563    -1.2365 C.ar    
  22 C22            4.0577   -11.7276    -1.7764 C.ar    
  23 C23            3.4574   -12.2804    -2.8996 C.ar    
  24 C24            2.3617   -11.6552    -3.4793 C.ar    
  25 C25            1.8663   -10.4868    -2.9355 C.ar    
  26 N26            3.9582   -13.4703    -3.4489 N.pl3   
  27 N27            5.0512   -14.2037    -2.9694 N.2     
  28 C28            5.2132   -15.2484    -3.7413 C.2     
  29 C29            4.2302   -15.2145    -4.7361 C.2     
  30 C30            3.4678   -14.1151    -4.5312 C.2     
  31 C31            6.2760   -16.3054    -3.5854 C.3     
  32 C32            7.6548   -15.6427    -3.5622 C.3     
  33 C33            8.7339   -16.7158    -3.4039 C.3     
  34 H34           -0.7103    -0.4753     1.0084 H       
  35 H35           -0.7721    -0.4565    -0.7703 H       
  36 H36            1.6842    -0.1270    -0.8522 H       
  37 H37            1.7460    -0.1458     0.9266 H       
  38 H38           -1.4975     3.0101     0.1766 H       
  39 H39            4.7075    -4.1791    -0.1101 H       
  40 H40            4.7267    -6.6620    -0.1361 H       
  41 H41            0.4205    -4.3544     0.0478 H       
  42 H42            0.4684    -2.5092     0.0555 H       
  43 H43            3.6223    -8.6743    -0.0289 H       
  44 H44            2.2224    -8.4126     2.0409 H       
  45 H45            0.7637    -8.5526     1.0305 H       
  46 H46            1.5090   -10.7901     0.2645 H       
  47 H47            2.9677   -10.6502     1.2749 H       
  48 H48            1.2141   -11.9757     2.4223 H       
  49 H49            1.5476   -10.4630     3.2990 H       
  50 H50            0.0889   -10.6030     2.2886 H       
  51 H51            4.0318   -10.1260    -0.3630 H       
  52 H52            4.9102   -12.2134    -1.3253 H       
  53 H53            1.8945   -12.0849    -4.3531 H       
  54 H54            1.0112   -10.0028    -3.3837 H       
  55 H55            4.0999   -15.9400    -5.5255 H       
  56 H56            2.6214   -13.8069    -5.1271 H       
  57 H57            6.1169   -16.8458    -2.6523 H       
  58 H58            6.2216   -17.0016    -4.4223 H       
  59 H59            7.8140   -15.1022    -4.4953 H       
  60 H60            7.7093   -14.9465    -2.7253 H       
  61 H61            8.6794   -17.4120    -4.2409 H       
  62 H62            9.7162   -16.2437    -3.3874 H       
  63 H63            8.5747   -17.2562    -2.4708 H       
@<TRIPOS>BOND
   1    1    2 1
   2    1    4 2
   3    1    5 1
   4    2    3 1
   5    2   34 1
   6    2   35 1
   7    3   14 1
   8    3   36 1
   9    3   37 1
  10    5   38 1
  11    6    7 1
  12    6   13 2
  13    6   14 am
  14    7    8 ar
  15    7   12 ar
  16    8    9 ar
  17    8   39 1
  18    9   10 ar
  19    9   40 1
  20   10   11 ar
  21   10   15 1
  22   11   12 ar
  23   12   41 1
  24   14   42 1
  25   15   16 1
  26   15   19 1
  27   15   43 1
  28   16   17 1
  29   16   44 1
  30   16   45 1
  31   17   18 1
  32   17   46 1
  33   17   47 1
  34   18   48 1
  35   18   49 1
  36   18   50 1
  37   19   20 1
  38   20   21 ar
  39   20   25 ar
  40   21   22 ar
  41   21   51 1
  42   22   23 ar
  43   22   52 1
  44   23   24 ar
  45   23   26 1
  46   24   25 ar
  47   24   53 1
  48   25   54 1
  49   26   27 1
  50   26   30 1
  51   27   28 2
  52   28   29 1
  53   28   31 1
  54   29   30 2
  55   29   55 1
  56   30   56 1
  57   31   32 1
  58   31   57 1
  59   31   58 1
  60   32   33 1
  61   32   59 1
  62   32   60 1
  63   33   61 1
  64   33   62 1
  65   33   63 1

#	End of record

