#	Name: ASD06170176
#	Creating user name:	WinNT
#	Creation time:	15. 06. 2019 21:05

#	Modifying user name:	WinNT
#	Modification time:	15. 06. 2019 21:05

#	Program:	/corina/corina34_cracker 3.40 0067  02.08.2006

@<TRIPOS>MOLECULE
ASD06170176
  76   80    0    0    0
SMALL
NO_CHARGES


@<TRIPOS>ATOM
   1 N1             0.3201     1.0142    -0.0977 N.pl3   
   2 N2             0.2852    -0.3403     0.2466 N.am    
   3 C3             1.5521    -0.8003     0.3091 C.2     
   4 C4             2.4265     0.3376    -0.0161 C.2     
   5 C5             1.5960     1.4153    -0.2535 C.2     
   6 C6             3.8933     0.3290    -0.0763 C.2     
   7 O7             4.4965     1.3472    -0.3591 O.2     
   8 N8             4.5717    -0.8066     0.1818 N.am    
   9 C9            -0.8693    -1.0924     0.4867 C.ar    
  10 C10           -1.9272    -1.0496    -0.4121 C.ar    
  11 C11           -3.0657    -1.7937    -0.1723 C.ar    
  12 C12           -3.1529    -2.5809     0.9614 C.ar    
  13 C13           -2.1016    -2.6253     1.8585 C.ar    
  14 C14           -0.9580    -1.8880     1.6216 C.ar    
  15 O15            1.9027    -1.9334     0.5810 O.2     
  16 C16            6.0355    -0.8151     0.1217 C.3     
  17 C17            6.5759    -1.9365     1.0113 C.3     
  18 C18            8.1046    -1.9454     0.9485 C.3     
  19 C19            8.5544    -2.1782    -0.4952 C.3     
  20 C20            8.0140    -1.0568    -1.3848 C.3     
  21 C21            6.4853    -1.0479    -1.3221 C.3     
  22 O22            9.9821    -2.1865    -0.5538 O.3     
  23 N23           11.6972    -4.3992    -3.5825 N.ar    
  24 C24           10.3939    -4.2556    -3.5265 C.ar    
  25 C25            9.7810    -3.5173    -2.5221 C.ar    
  26 C26           10.5532    -2.9125    -1.5463 C.ar    
  27 C27           11.9554    -3.0742    -1.6160 C.ar    
  28 C28           12.8031    -2.4913    -0.6625 C.ar    
  29 C29           14.1494    -2.6657    -0.7564 C.ar    
  30 C30           14.7019    -3.4211    -1.7948 C.ar    
  31 C31           13.8967    -4.0058    -2.7459 C.ar    
  32 C32           12.5043    -3.8415    -2.6723 C.ar    
  33 O33           16.0491    -3.5797    -1.8663 O.3     
  34 C34           16.8314    -2.9485    -0.8507 C.3     
  35 C35            2.0426     2.8060    -0.6245 C.3     
  36 C36           -0.8573     1.8689    -0.2697 C.3     
  37 C37           -1.2279     2.5027     1.0726 C.3     
  38 C38           -0.0557     3.3452     1.5797 C.3     
  39 C39           -2.4574     3.3954     0.8930 C.3     
  40 O40           -1.5203     1.4741     2.0205 O.3     
  41 H41            4.0908    -1.6182     0.4073 H       
  42 H42           -1.8598    -0.4347    -1.2974 H       
  43 H43           -3.8888    -1.7606    -0.8706 H       
  44 H44           -4.0443    -3.1619     1.1466 H       
  45 H45           -2.1730    -3.2408     2.7431 H       
  46 H46           -0.1355    -1.9266     2.3204 H       
  47 H47            6.4191     0.1432     0.4717 H       
  48 H48            6.2554    -1.7707     2.0398 H       
  49 H49            6.1923    -2.8948     0.6612 H       
  50 H50            8.4882    -0.9871     1.2986 H       
  51 H51            8.4896    -2.7443     1.5823 H       
  52 H52            8.1708    -3.1365    -0.8453 H       
  53 H53            8.3976    -0.0985    -1.0348 H       
  54 H54            8.3344    -1.2226    -2.4134 H       
  55 H55            6.1017    -2.0062    -1.6721 H       
  56 H56            6.1003    -0.2490    -1.9558 H       
  57 H57            9.7810    -4.7235    -4.2827 H       
  58 H58            8.7060    -3.4162    -2.5026 H       
  59 H59           12.3882    -1.9051     0.1442 H       
  60 H60           14.7986    -2.2149    -0.0204 H       
  61 H61           14.3335    -4.5872    -3.5443 H       
  62 H62           16.6614    -1.8722    -0.8775 H       
  63 H63           16.5421    -3.3379     0.1254 H       
  64 H64           17.8875    -3.1539    -1.0254 H       
  65 H65            2.1927     3.3932     0.2815 H       
  66 H66            2.9784     2.7508    -1.1808 H       
  67 H67            1.2800     3.2798    -1.2424 H       
  68 H68           -0.6342     2.6535    -0.9927 H       
  69 H69           -1.6923     1.2687    -0.6310 H       
  70 H70            0.1674     4.1298     0.8568 H       
  71 H71           -0.3197     3.7967     2.5361 H       
  72 H72            0.8203     2.7093     1.7077 H       
  73 H73           -3.2925     2.7952     0.5317 H       
  74 H74           -2.7214     3.8469     1.8493 H       
  75 H75           -2.2343     4.1800     0.1700 H       
  76 H76           -2.2548     0.8999     1.7636 H       
@<TRIPOS>BOND
   1    1    2 1
   2    1    5 1
   3    1   36 1
   4    2    3 am
   5    2    9 1
   6    3    4 1
   7    3   15 2
   8    4    5 2
   9    4    6 1
  10    5   35 1
  11    6    7 2
  12    6    8 am
  13    8   16 1
  14    8   41 1
  15    9   10 ar
  16    9   14 ar
  17   10   11 ar
  18   10   42 1
  19   11   12 ar
  20   11   43 1
  21   12   13 ar
  22   12   44 1
  23   13   14 ar
  24   13   45 1
  25   14   46 1
  26   16   17 1
  27   16   21 1
  28   16   47 1
  29   17   18 1
  30   17   48 1
  31   17   49 1
  32   18   19 1
  33   18   50 1
  34   18   51 1
  35   19   20 1
  36   19   22 1
  37   19   52 1
  38   20   21 1
  39   20   53 1
  40   20   54 1
  41   21   55 1
  42   21   56 1
  43   22   26 1
  44   23   24 ar
  45   23   32 ar
  46   24   25 ar
  47   24   57 1
  48   25   26 ar
  49   25   58 1
  50   26   27 ar
  51   27   28 ar
  52   27   32 ar
  53   28   29 ar
  54   28   59 1
  55   29   30 ar
  56   29   60 1
  57   30   31 ar
  58   30   33 1
  59   31   32 ar
  60   31   61 1
  61   33   34 1
  62   34   62 1
  63   34   63 1
  64   34   64 1
  65   35   65 1
  66   35   66 1
  67   35   67 1
  68   36   37 1
  69   36   68 1
  70   36   69 1
  71   37   38 1
  72   37   39 1
  73   37   40 1
  74   38   70 1
  75   38   71 1
  76   38   72 1
  77   39   73 1
  78   39   74 1
  79   39   75 1
  80   40   76 1

#	End of record

