#	Name: ASD06170049
#	Creating user name:	WinNT
#	Creation time:	15. 06. 2019 21:05

#	Modifying user name:	WinNT
#	Modification time:	15. 06. 2019 21:05

#	Program:	/corina/corina34_cracker 3.40 0067  02.08.2006

@<TRIPOS>MOLECULE
ASD06170049
  56   60    0    0    0
SMALL
NO_CHARGES


@<TRIPOS>ATOM
   1 N1             0.1941    -1.9678     0.1178 N.pl3   
   2 N2            -0.0077    -0.6608    -0.3355 N.am    
   3 C3             1.1921    -0.1179    -0.6289 C.2     
   4 C4             2.2001    -1.1505    -0.3403 C.2     
   5 C5             1.5092    -2.2570     0.1140 C.2     
   6 C6             3.6536    -1.0288    -0.5037 C.2     
   7 O7             4.3777    -1.9665    -0.2259 O.2     
   8 N8             4.1863     0.1215    -0.9613 N.am    
   9 C9            -1.2458    -0.0231    -0.4640 C.ar    
  10 C10           -1.4275     1.2542     0.0502 C.ar    
  11 C11           -2.6512     1.8813    -0.0788 C.ar    
  12 C12           -3.6951     1.2386    -0.7186 C.ar    
  13 C13           -3.5177    -0.0334    -1.2313 C.ar    
  14 C14           -2.2947    -0.6636    -1.1110 C.ar    
  15 O15            1.3999     1.0049    -1.0496 O.2     
  16 C16           -0.8675    -2.8848     0.5404 C.3     
  17 C17            5.5716     0.2789    -1.0072 C.ar    
  18 C18            6.1123     1.5093    -1.3634 C.ar    
  19 C19            7.4871     1.6544    -1.4057 C.ar    
  20 C20            8.2805     0.5547    -1.0876 C.ar    
  21 C21            7.6714    -0.6408    -0.7415 C.ar    
  22 N22            6.3565    -0.7429    -0.7060 N.ar    
  23 O23            9.6363     0.6529    -1.1168 O.3     
  24 N24           11.5013     2.3765     2.1328 N.ar    
  25 C25           10.1915     2.3116     2.0813 C.ar    
  26 C26            9.5286     1.7388     1.0035 C.ar    
  27 C27           10.2565     1.2182    -0.0522 C.ar    
  28 C28           11.6663     1.2935     0.0139 C.ar    
  29 C29           12.4709     0.7875    -1.0175 C.ar    
  30 C30           13.8258     0.8750    -0.9246 C.ar    
  31 C31           14.4295     1.4649     0.1897 C.ar    
  32 C32           13.6673     1.9702     1.2185 C.ar    
  33 C33           12.2673     1.8932     1.1475 C.ar    
  34 O34           15.7841     1.5399     0.2582 O.3     
  35 C35           16.5202     0.9976    -0.8400 C.3     
  36 H36            1.9497    -3.1957     0.4159 H       
  37 H37            3.6065     0.8400    -1.2588 H       
  38 H38           -0.6128     1.7564     0.5506 H       
  39 H39           -2.7931     2.8746     0.3207 H       
  40 H40           -4.6512     1.7310    -0.8179 H       
  41 H41           -4.3352    -0.5329    -1.7298 H       
  42 H42           -2.1553    -1.6551    -1.5158 H       
  43 H43           -1.2795    -3.3907    -0.3328 H       
  44 H44           -0.4567    -3.6238     1.2284 H       
  45 H45           -1.6561    -2.3221     1.0400 H       
  46 H46            5.4670     2.3411    -1.6044 H       
  47 H47            7.9350     2.5983    -1.6793 H       
  48 H48            8.2802    -1.4979    -0.4939 H       
  49 H49            9.6132     2.7144     2.8996 H       
  50 H50            8.4494     1.6996     0.9894 H       
  51 H51           12.0162     0.3292    -1.8833 H       
  52 H52           14.4417     0.4839    -1.7208 H       
  53 H53           14.1435     2.4240     2.0751 H       
  54 H54           16.2904    -0.0629    -0.9432 H       
  55 H55           16.2439     1.5200    -1.7559 H       
  56 H56           17.5878     1.1221    -0.6587 H       
@<TRIPOS>BOND
   1    1    2 1
   2    1    5 1
   3    1   16 1
   4    2    3 am
   5    2    9 1
   6    3    4 1
   7    3   15 2
   8    4    5 2
   9    4    6 1
  10    5   36 1
  11    6    7 2
  12    6    8 am
  13    8   17 1
  14    8   37 1
  15    9   10 ar
  16    9   14 ar
  17   10   11 ar
  18   10   38 1
  19   11   12 ar
  20   11   39 1
  21   12   13 ar
  22   12   40 1
  23   13   14 ar
  24   13   41 1
  25   14   42 1
  26   16   43 1
  27   16   44 1
  28   16   45 1
  29   17   18 ar
  30   17   22 ar
  31   18   19 ar
  32   18   46 1
  33   19   20 ar
  34   19   47 1
  35   20   21 ar
  36   20   23 1
  37   21   22 ar
  38   21   48 1
  39   23   27 1
  40   24   25 ar
  41   24   33 ar
  42   25   26 ar
  43   25   49 1
  44   26   27 ar
  45   26   50 1
  46   27   28 ar
  47   28   29 ar
  48   28   33 ar
  49   29   30 ar
  50   29   51 1
  51   30   31 ar
  52   30   52 1
  53   31   32 ar
  54   31   34 1
  55   32   33 ar
  56   32   53 1
  57   34   35 1
  58   35   54 1
  59   35   55 1
  60   35   56 1

#	End of record

