#	Name: ASD01148736
#	Creating user name:	WinNT
#	Creation time:	15. 06. 2019 19:03

#	Modifying user name:	WinNT
#	Modification time:	15. 06. 2019 19:03

#	Program:	/corina/corina34_cracker 3.40 0067  02.08.2006

@<TRIPOS>MOLECULE
ASD01148736
  50   52    0    0    0
SMALL
NO_CHARGES


@<TRIPOS>ATOM
   1 N1            -0.0153     1.3474     0.0831 N.pl3   
   2 C2             0.0018     0.0058    -0.1105 C.2     
   3 C3             1.3168    -0.4048    -0.1566 C.2     
   4 C4             2.1200     0.7520     0.0186 C.2     
   5 C5             1.2784     1.8073     0.1626 C.2     
   6 C6             1.7976    -1.7835    -0.3510 C.2     
   7 O7             1.0004    -2.6915    -0.4902 O.2     
   8 N8             3.1207    -2.0388    -0.3745 N.am    
   9 C9             3.5988    -3.4100    -0.5678 C.3     
  10 O10            3.8786    -3.6262    -1.9524 O.3     
  11 C11            5.1391    -3.1053    -2.3788 C.3     
  12 C12           -1.2073    -0.8826    -0.2511 C.3     
  13 C13           -1.1667     2.1398     0.1806 C.ar    
  14 C14           -2.0081     2.0124     1.2780 C.ar    
  15 C15           -3.1423     2.7947     1.3713 C.ar    
  16 C16           -3.4405     3.7044     0.3731 C.ar    
  17 C17           -2.6048     3.8336    -0.7207 C.ar    
  18 C18           -1.4658     3.0579    -0.8168 C.ar    
  19 S19           -4.2108     2.6334     2.7630 S.o2    
  20 O20           -5.4804     3.0509     2.2803 O.2     
  21 O21           -4.0000     1.3025     3.2142 O.2     
  22 C22           -3.5654     3.8242     3.9696 C.3     
  23 C23            1.6843     3.2142     0.3695 C.ar    
  24 C24            0.7892     4.1262     0.9304 C.ar    
  25 C25            1.1735     5.4372     1.1214 C.ar    
  26 C26            2.4445     5.8490     0.7575 C.ar    
  27 C27            3.3367     4.9487     0.2001 C.ar    
  28 C28            2.9658     3.6337     0.0100 C.ar    
  29 Cl29           2.9209     7.5006     1.0004 Cl      
  30 H30            3.1993     0.7862     0.0350 H       
  31 H31            3.7564    -1.3146    -0.2635 H       
  32 H32            4.5072    -3.5636     0.0148 H       
  33 H33            2.8327    -4.1118    -0.2381 H       
  34 H34            5.1631    -2.0287    -2.2101 H       
  35 H35            5.9393    -3.5800    -1.8110 H       
  36 H36            5.2763    -3.3098    -3.4406 H       
  37 H37           -1.4886    -0.9499    -1.3020 H       
  38 H38           -0.9728    -1.8778     0.1267 H       
  39 H39           -2.0351    -0.4628     0.3204 H       
  40 H40           -1.7759     1.3019     2.0576 H       
  41 H41           -4.3283     4.3149     0.4481 H       
  42 H42           -2.8404     4.5448    -1.4985 H       
  43 H43           -0.8110     3.1624    -1.6693 H       
  44 H44           -3.5998     4.8272     3.5443 H       
  45 H45           -4.1739     3.7917     4.8734 H       
  46 H46           -2.5347     3.5693     4.2162 H       
  47 H47           -0.2026     3.8063     1.2139 H       
  48 H48            0.4816     6.1439     1.5553 H       
  49 H49            4.3265     5.2757    -0.0825 H       
  50 H50            3.6642     2.9313    -0.4203 H       
@<TRIPOS>BOND
   1    1    2 1
   2    1    5 1
   3    1   13 1
   4    2    3 2
   5    2   12 1
   6    3    4 1
   7    3    6 1
   8    4    5 2
   9    4   30 1
  10    5   23 1
  11    6    7 2
  12    6    8 am
  13    8    9 1
  14    8   31 1
  15    9   10 1
  16    9   32 1
  17    9   33 1
  18   10   11 1
  19   11   34 1
  20   11   35 1
  21   11   36 1
  22   12   37 1
  23   12   38 1
  24   12   39 1
  25   13   14 ar
  26   13   18 ar
  27   14   15 ar
  28   14   40 1
  29   15   16 ar
  30   15   19 1
  31   16   17 ar
  32   16   41 1
  33   17   18 ar
  34   17   42 1
  35   18   43 1
  36   19   20 2
  37   19   21 2
  38   19   22 1
  39   22   44 1
  40   22   45 1
  41   22   46 1
  42   23   24 ar
  43   23   28 ar
  44   24   25 ar
  45   24   47 1
  46   25   26 ar
  47   25   48 1
  48   26   27 ar
  49   26   29 1
  50   27   28 ar
  51   27   49 1
  52   28   50 1

#	End of record

