#	Name: ASD00120021
#	Creating user name:	WinNT
#	Creation time:	15. 06. 2019 18:31

#	Modifying user name:	WinNT
#	Modification time:	15. 06. 2019 18:31

#	Program:	/corina/corina34_cracker 3.40 0067  02.08.2006

@<TRIPOS>MOLECULE
ASD00120021
  52   52    0    0    0
SMALL
NO_CHARGES


@<TRIPOS>ATOM
   1 O1            -0.0161     1.3381     0.0094 O.3     
   2 C2             0.0021    -0.0041     0.0020 C.2     
   3 O3             1.0565    -0.5939    -0.0112 O.2     
   4 C4            -1.2926    -0.7753     0.0102 C.3     
   5 F5            -1.0184    -2.1471     0.0003 F       
   6 F6            -2.0198    -0.4534     1.1613 F       
   7 F7            -2.0416    -0.4412    -1.1232 F       
   8 H8             0.8394     1.7888     0.0037 H       
   9 O9             8.0820    10.2739     7.2938 O.3     
  10 C10            8.1002     8.9318     7.2864 C.2     
  11 O11            9.1546     8.3420     7.2732 O.2     
  12 C12            6.8055     8.1606     7.2947 C.3     
  13 F13            7.0798     6.7888     7.2847 F       
  14 F14            6.0783     8.4824     8.4457 F       
  15 F15            6.0565     8.4947     6.1613 F       
  16 H16            8.9375    10.7246     7.2881 H       
  17 H17           15.9305    17.9786    15.5797 H       
  18 C18           15.9157    19.0685    15.5857 C.3     
  19 C19           15.1825    19.5929    14.3446 C.3     
  20 C20           15.1866    21.1238    14.3778 C.3     
  21 N21           15.8908    21.5829    15.5831 N.3     
  22 C22           17.2934    21.1459    15.5734 C.3     
  23 C23           17.3486    19.6155    15.5750 C.3     
  24 C24           15.2040    21.1266    16.7993 C.3     
  25 C25           15.2065    19.5795    16.8462 C.3     
  26 H26           14.1786    19.2170    16.8592 H       
  27 N27           15.9158    19.0985    18.0393 N.3     
  28 C28           15.0147    19.0352    19.1977 C.3     
  29 C29           15.7760    18.5388    20.3998 C.ar    
  30 C30           15.6754    17.2148    20.7831 C.ar    
  31 C31           16.3738    16.7593    21.8860 C.ar    
  32 C32           17.1724    17.6280    22.6058 C.ar    
  33 C33           17.2731    18.9526    22.2231 C.ar    
  34 C34           16.5799    19.4069    21.1162 C.ar    
  35 I35           16.7400    21.4118    20.5300 I       
  36 H36           15.6919    19.2458    13.4457 H       
  37 H37           14.1546    19.2303    14.3473 H       
  38 H38           15.6946    21.5055    13.4922 H       
  39 H39           14.1600    21.4899    14.3948 H       
  40 H40           17.7868    21.5267    14.6792 H       
  41 H41           17.7997    21.5290    16.4594 H       
  42 H42           17.8825    19.2585    16.4557 H       
  43 H43           17.8612    19.2794    14.6736 H       
  44 H44           15.7249    21.5100    17.6767 H       
  45 H45           14.1774    21.4928    16.7964 H       
  46 H46           16.3468    18.2026    17.8671 H       
  47 H47           14.6178    20.0292    19.4041 H       
  48 H48           14.1923    18.3534    18.9815 H       
  49 H49           15.0509    16.5360    20.2213 H       
  50 H50           16.2951    15.7246    22.1853 H       
  51 H51           17.7176    17.2719    23.4674 H       
  52 H52           17.8966    19.6314    22.7860 H       
@<TRIPOS>BOND
   1    1    2 1
   2    1    8 1
   3    2    3 2
   4    2    4 1
   5    4    5 1
   6    4    6 1
   7    4    7 1
   8    9   10 1
   9    9   16 1
  10   10   11 2
  11   10   12 1
  12   12   13 1
  13   12   14 1
  14   12   15 1
  15   17   18 1
  16   18   23 1
  17   18   25 1
  18   18   19 1
  19   19   20 1
  20   19   36 1
  21   19   37 1
  22   20   21 1
  23   20   38 1
  24   20   39 1
  25   21   22 1
  26   21   24 1
  27   22   23 1
  28   22   40 1
  29   22   41 1
  30   23   42 1
  31   23   43 1
  32   24   25 1
  33   24   44 1
  34   24   45 1
  35   25   26 1
  36   25   27 1
  37   27   28 1
  38   27   46 1
  39   28   29 1
  40   28   47 1
  41   28   48 1
  42   29   34 ar
  43   29   30 ar
  44   30   31 ar
  45   30   49 1
  46   31   32 ar
  47   31   50 1
  48   32   33 ar
  49   32   51 1
  50   33   34 ar
  51   33   52 1
  52   34   35 1

#	End of record

