#	Name: ASD01910447
#	Creating user name:	WinNT
#	Creation time:	15. 06. 2019 19:55

#	Modifying user name:	WinNT
#	Modification time:	15. 06. 2019 19:55

#	Program:	/corina/corina34_cracker 3.40 0067  02.08.2006

@<TRIPOS>MOLECULE
ASD01910447
  47   50    0    0    0
SMALL
NO_CHARGES


@<TRIPOS>ATOM
   1 C1             2.4329    -0.0218     1.8031 C.ar    
   2 C2             2.3922    -1.3351     1.3629 C.ar    
   3 C3             3.3376    -1.7973     0.4614 C.ar    
   4 C4             4.3241    -0.9512    -0.0013 C.ar    
   5 C5             4.3686     0.3703     0.4388 C.ar    
   6 C6             3.4156     0.8312     1.3451 C.ar    
   7 F7             1.4284    -2.1673     1.8142 F       
   8 C8             5.4281     1.2839    -0.0557 C.2     
   9 N9             5.5912     2.5826     0.2842 N.2     
  10 C10            6.6413     2.9917    -0.3833 C.2     
  11 O11            7.0825     1.9523    -1.0987 O.3     
  12 N12            6.3824     0.9824    -0.8976 N.2     
  13 C13            7.2394     4.3745    -0.3511 C.3     
  14 C14            8.6861     4.2940     0.1415 C.3     
  15 C15            9.2840     5.7013     0.2058 C.3     
  16 C16            9.2845     6.3161    -1.1974 C.3     
  17 N17            7.9187     6.2648    -1.7367 N.am    
  18 C18            7.2167     4.9743    -1.7605 C.3     
  19 C19            7.3213     7.3802    -2.2006 C.2     
  20 C20            7.9885     8.6867    -2.0594 C.2     
  21 O21            6.2316     7.3087    -2.7358 O.2     
  22 C22            8.6664     9.2141    -0.8662 C.2     
  23 C23            9.1190    10.4305    -1.2065 C.2     
  24 O24            8.7814    10.6847    -2.4803 O.3     
  25 C25            8.1114     9.6570    -3.0104 C.2     
  26 C26            7.5744     9.5860    -4.4167 C.3     
  27 C27            9.8838    11.3627    -0.3025 C.3     
  28 H28            1.6915     0.3357     2.5023 H       
  29 H29            3.3024    -2.8216     0.1208 H       
  30 H30            5.0610    -1.3125    -0.7034 H       
  31 H31            3.4464     1.8547     1.6885 H       
  32 H32            6.6602     5.0058     0.3228 H       
  33 H33            8.7072     3.8447     1.1344 H       
  34 H34            9.2703     3.6823    -0.5461 H       
  35 H35            8.6857     6.3205     0.8741 H       
  36 H36           10.3066     5.6454     0.5788 H       
  37 H37            9.6167     7.3528    -1.1419 H       
  38 H38            9.9543     5.7497    -1.8443 H       
  39 H39            7.7179     4.2984    -2.4534 H       
  40 H40            6.1846     5.1256    -2.0767 H       
  41 H41            8.7770     8.7229     0.0893 H       
  42 H42            7.8157    10.5085    -4.9448 H       
  43 H43            8.0266     8.7411    -4.9361 H       
  44 H44            6.4925     9.4570    -4.3865 H       
  45 H45           10.9520    11.1699    -0.4017 H       
  46 H46            9.6732    12.3947    -0.5829 H       
  47 H47            9.5792    11.1977     0.7310 H       
@<TRIPOS>BOND
   1    1    2 ar
   2    1    6 ar
   3    1   28 1
   4    2    3 ar
   5    2    7 1
   6    3    4 ar
   7    3   29 1
   8    4    5 ar
   9    4   30 1
  10    5    6 ar
  11    5    8 1
  12    6   31 1
  13    8    9 1
  14    8   12 2
  15    9   10 2
  16   10   11 1
  17   10   13 1
  18   11   12 1
  19   13   14 1
  20   13   18 1
  21   13   32 1
  22   14   15 1
  23   14   33 1
  24   14   34 1
  25   15   16 1
  26   15   35 1
  27   15   36 1
  28   16   17 1
  29   16   37 1
  30   16   38 1
  31   17   18 1
  32   17   19 am
  33   18   39 1
  34   18   40 1
  35   19   20 1
  36   19   21 2
  37   20   22 1
  38   20   25 2
  39   22   23 2
  40   22   41 1
  41   23   24 1
  42   23   27 1
  43   24   25 1
  44   25   26 1
  45   26   42 1
  46   26   43 1
  47   26   44 1
  48   27   45 1
  49   27   46 1
  50   27   47 1

#	End of record

