#	Name: ASD02030390
#	Creating user name:	WinNT
#	Creation time:	15. 06. 2019 20:15

#	Modifying user name:	WinNT
#	Modification time:	15. 06. 2019 20:15

#	Program:	/corina/corina34_cracker 3.40 0067  02.08.2006

@<TRIPOS>MOLECULE
ASD02030390
  21   22    0    0    0
SMALL
NO_CHARGES


@<TRIPOS>ATOM
   1 O1            -0.0161     1.3335     0.0094 O.3     
   2 C2             0.0021    -0.0041     0.0020 C.2     
   3 C3             1.2888    -0.4488    -0.0127 C.2     
   4 C4             2.1310     0.7644    -0.0142 C.ar    
   5 C5             1.2335     1.8422     0.0002 C.ar    
   6 C6             3.5024     0.9939    -0.0257 C.ar    
   7 C7             3.9771     2.2885    -0.0229 C.ar    
   8 C8             3.0922     3.3556    -0.0082 C.ar    
   9 C9             1.7304     3.1395     0.0028 C.ar    
  10 C10            1.7447    -1.8454    -0.0241 C.2     
  11 O11            2.9342    -2.0964    -0.0364 O.2     
  12 O12            0.8441    -2.8486    -0.0209 O.3     
  13 C13            5.4622     2.5442    -0.0352 C.3     
  14 Br14           6.0908     2.6657    -1.8941 Br      
  15 H15           -0.8732    -0.6367     0.0073 H       
  16 H16            4.1920     0.1627    -0.0364 H       
  17 H17            3.4732     4.3662    -0.0054 H       
  18 H18            1.0504     3.9785     0.0134 H       
  19 H19            1.1919    -3.7508    -0.0288 H       
  20 H20            5.6741     3.4800     0.4819 H       
  21 H21            5.9760     1.7259     0.4693 H       
@<TRIPOS>BOND
   1    1    2 1
   2    1    5 1
   3    2    3 2
   4    2   15 1
   5    3    4 1
   6    3   10 1
   7    4    5 ar
   8    4    6 ar
   9    5    9 ar
  10    6    7 ar
  11    6   16 1
  12    7    8 ar
  13    7   13 1
  14    8    9 ar
  15    8   17 1
  16    9   18 1
  17   10   11 2
  18   10   12 1
  19   12   19 1
  20   13   14 1
  21   13   20 1
  22   13   21 1

#	End of record

