#	Name: ASD03091926
#	Creating user name:	WinNT
#	Creation time:	15. 06. 2019 20:31

#	Modifying user name:	WinNT
#	Modification time:	15. 06. 2019 20:31

#	Program:	/corina/corina34_cracker 3.40 0067  02.08.2006

@<TRIPOS>MOLECULE
ASD03091926
  54   58    0    0    0
SMALL
NO_CHARGES


@<TRIPOS>ATOM
   1 C1             0.0097     1.4358     0.1837 C.ar    
   2 C2            -1.1932     2.1641     0.1880 C.ar    
   3 C3            -2.4259     1.4651     0.1389 C.ar    
   4 C4            -2.4321     0.0577     0.0847 C.ar    
   5 C5            -1.2631    -0.6333     0.0809 C.ar    
   6 C6            -0.0342     0.0418     0.1303 C.ar    
   7 O7             1.2133     2.0511     0.2357 O.3     
   8 C8             2.2630     1.3780     0.9312 C.3     
   9 N9             2.3610    -0.0163     0.4971 N.am    
  10 C10            1.2465    -0.6924     0.1338 C.2     
  11 C11           -3.7423    -0.6850     0.0311 C.3     
  12 N12           -4.3594    -0.6861     1.3642 N.3     
  13 C13           -3.4299    -1.2287     2.3778 C.3     
  14 O14            1.2984    -1.8662    -0.1799 O.2     
  15 C15            3.6662    -0.6804     0.4560 C.3     
  16 C16            4.5891     0.0304    -0.5554 C.3     
  17 C17            4.3545    -0.5754     1.8283 C.3     
  18 C18            5.6716     0.1955     1.6029 C.3     
  19 C19            5.4179     1.0111     0.3108 C.3     
  20 O20            4.6326    -1.8813     2.3376 O.3     
  21 C21           -3.6272     2.1927     0.1458 C.ar    
  22 C22           -1.1976     3.5672     0.2403 C.ar    
  23 C23           -2.3823     4.2389     0.2452 C.ar    
  24 C24           -3.5936     3.5530     0.1978 C.ar    
  25 C25           -4.3387    -1.9621     3.3956 C.3     
  26 C26           -5.4196    -2.5742     2.4662 C.3     
  27 C27           -5.5913    -1.4961     1.3755 C.3     
  28 C28           -4.9458    -3.8380     1.8787 C.1     
  29 N29           -4.5802    -4.8133     1.4253 N.1     
  30 H30           -1.2795    -1.7123     0.0393 H       
  31 H31            3.2078     1.8834     0.7312 H       
  32 H32            2.0606     1.4073     2.0018 H       
  33 H33           -4.4093    -0.1942    -0.6777 H       
  34 H34           -3.5650    -1.7120    -0.2881 H       
  35 H35           -2.7332    -1.9292     1.9175 H       
  36 H36           -2.8878    -0.4196     2.8674 H       
  37 H37            3.5436    -1.7274     0.1789 H       
  38 H38            5.2427    -0.6901    -1.0472 H       
  39 H39            3.9993     0.5765    -1.2916 H       
  40 H40            3.7174    -0.0304     2.5248 H       
  41 H41            5.8718     0.8621     2.4417 H       
  42 H42            6.4999    -0.4983     1.4596 H       
  43 H43            6.3589     1.2596    -0.1801 H       
  44 H44            4.8452     1.9124     0.5291 H       
  45 H45            5.0670    -1.8822     3.2015 H       
  46 H46           -4.5744     1.6750     0.1096 H       
  47 H47           -0.2655     4.1114     0.2769 H       
  48 H48           -2.3825     5.3181     0.2862 H       
  49 H49           -4.5199     4.1083     0.2025 H       
  50 H50           -3.7872    -2.7425     3.9199 H       
  51 H51           -4.7825    -1.2590     4.1003 H       
  52 H52           -6.3529    -2.7260     3.0083 H       
  53 H53           -6.4482    -0.8646     1.6100 H       
  54 H54           -5.7322    -1.9703     0.4042 H       
@<TRIPOS>BOND
   1    1    6 ar
   2    1    7 1
   3    1    2 ar
   4    2    3 ar
   5    2   22 ar
   6    3    4 ar
   7    3   21 ar
   8    4    5 ar
   9    4   11 1
  10    5    6 ar
  11    5   30 1
  12    6   10 1
  13    7    8 1
  14    8    9 1
  15    8   31 1
  16    8   32 1
  17    9   10 am
  18    9   15 1
  19   10   14 2
  20   11   12 1
  21   11   33 1
  22   11   34 1
  23   12   27 1
  24   12   13 1
  25   13   25 1
  26   13   35 1
  27   13   36 1
  28   15   17 1
  29   15   16 1
  30   15   37 1
  31   16   19 1
  32   16   38 1
  33   16   39 1
  34   17   18 1
  35   17   20 1
  36   17   40 1
  37   18   19 1
  38   18   41 1
  39   18   42 1
  40   19   43 1
  41   19   44 1
  42   20   45 1
  43   21   24 ar
  44   21   46 1
  45   22   23 ar
  46   22   47 1
  47   23   24 ar
  48   23   48 1
  49   24   49 1
  50   25   26 1
  51   25   50 1
  52   25   51 1
  53   26   27 1
  54   26   28 1
  55   26   52 1
  56   27   53 1
  57   27   54 1
  58   28   29 3

#	End of record

