#	Name: ASD06390018
#	Creating user name:	WinNT
#	Creation time:	15. 06. 2019 21:06

#	Modifying user name:	WinNT
#	Modification time:	15. 06. 2019 21:06

#	Program:	/corina/corina34_cracker 3.40 0067  02.08.2006

@<TRIPOS>MOLECULE
ASD06390018
  80   85    0    0    0
SMALL
NO_CHARGES


@<TRIPOS>ATOM
   1 C1            -0.7422     1.0788    -0.5868 C.3     
   2 C2            -0.3735    -0.4020    -0.3586 C.3     
   3 C3             1.1295    -0.3649    -0.2201 C.2     
   4 N4             1.5516     0.8788    -0.3558 N.2     
   5 C5             0.6100     1.7714    -0.5854 C.2     
   6 C6             3.5493     5.4093    -0.9221 C.2     
   7 C7             2.2061     5.1120    -1.0583 C.2     
   8 C8             2.0372     3.7455    -0.7874 C.2     
   9 N9             3.2673     3.2047    -0.5034 N.pl3   
  10 C10            4.2174     4.2026    -0.5573 C.2     
  11 C11            0.7884     3.1179    -0.8083 C.2     
  12 C12            8.0198     1.7107     0.6238 C.2     
  13 C13            7.6704     2.9978     0.3856 C.2     
  14 C14            6.2864     2.9956     0.0462 C.2     
  15 N15            5.8443     1.7419     0.1115 N.2     
  16 C16            6.8559     0.9247     0.4295 C.2     
  17 C17            5.5710     4.1503    -0.3085 C.2     
  18 C18            3.9103    -2.6453     0.3397 C.2     
  19 C19            5.2891    -2.4716     0.5058 C.2     
  20 C20            5.5514    -1.1062     0.4222 C.2     
  21 N21            4.3570    -0.4433     0.1877 N.pl3   
  22 C22            3.3421    -1.3686     0.1506 C.2     
  23 C23            1.9547    -1.4538    -0.0051 C.2     
  24 C24            6.7850    -0.4759     0.5559 C.2     
  25 C25            1.1162     6.0834    -1.4316 C.3     
  26 C26            4.1755     6.7290    -1.1181 C.2     
  27 C27            4.9911     7.2217    -0.1916 C.2     
  28 C28           -1.4428     1.2611    -1.9347 C.3     
  29 C29           -1.0220    -0.9297     0.9228 C.3     
  30 C30           -0.4247    -0.2067     2.1317 C.3     
  31 C31           -1.1587    -0.6244     3.3798 C.2     
  32 O32           -0.7232    -0.2174     4.5825 O.3     
  33 O33           -2.1392    -1.3256     3.2980 O.2     
  34 C34            1.5544    -2.9037     0.1018 C.3     
  35 C35            2.8521    -3.6596     0.2858 C.2     
  36 C36            0.6544    -3.1115     1.2926 C.2     
  37 C37            6.3039    -3.5621     0.7340 C.3     
  38 C38            9.3853     1.2098     1.0181 C.3     
  39 C39            9.4632     1.0867     2.5411 C.3     
  40 C40            8.5727     4.2022     0.4661 C.3     
  41 O41            2.9897    -4.8623     0.3716 O.2     
  42 O42            0.8721    -2.5220     2.3246 O.2     
  43 O43           -0.3890    -3.9515     1.2068 O.3     
  44 C44           -1.1388    -4.1980     2.4255 C.3     
  45 H45           -1.3670     1.4505     0.2254 H       
  46 H46           -0.6666    -1.0086    -1.2155 H       
  47 H47            3.4397     2.2725    -0.2980 H       
  48 H48           -0.0941     3.7251    -1.0124 H       
  49 H49            6.1291     5.0874    -0.3965 H       
  50 H50            4.2546     0.5141     0.0697 H       
  51 H51            7.6786    -1.0494     0.7476 H       
  52 H52            1.0015     6.1020    -2.5154 H       
  53 H53            0.1783     5.7712    -0.9723 H       
  54 H54            1.3804     7.0797    -1.0771 H       
  55 H55            3.9716     7.2957    -2.0147 H       
  56 H56            5.1950     6.6551     0.7049 H       
  57 H57            5.4500     8.1888    -0.3353 H       
  58 H58           -2.3548     0.6644    -1.9538 H       
  59 H59           -1.6936     2.3126    -2.0745 H       
  60 H60           -0.7791     0.9362    -2.7360 H       
  61 H61           -2.0965    -0.7505     0.8866 H       
  62 H62           -0.8349    -1.9999     1.0105 H       
  63 H63            0.6296    -0.4666     2.2261 H       
  64 H64           -0.5227     0.8703     1.9958 H       
  65 H65           -1.1808    -0.5705     5.3577 H       
  66 H66            1.0545    -3.2266    -0.8114 H       
  67 H67            6.6821    -3.9132    -0.2261 H       
  68 H68            7.1296    -3.1714     1.3288 H       
  69 H69            5.8342    -4.3904     1.2644 H       
  70 H70            9.5589     0.2336     0.5653 H       
  71 H71           10.1439     1.9113     0.6709 H       
  72 H72            8.7046     0.3852     2.8882 H       
  73 H73           10.4509     0.7244     2.8263 H       
  74 H74            9.2896     2.0629     2.9939 H       
  75 H75            9.0348     4.3756    -0.5057 H       
  76 H76            7.9873     5.0763     0.7512 H       
  77 H77            9.3486     4.0258     1.2111 H       
  78 H78           -1.6292    -3.2777     2.7429 H       
  79 H79           -1.8907    -4.9652     2.2407 H       
  80 H80           -0.4594    -4.5362     3.2080 H       
@<TRIPOS>BOND
   1    1    2 1
   2    1    5 1
   3    1   28 1
   4    1   45 1
   5    2    3 1
   6    2   29 1
   7    2   46 1
   8    3    4 2
   9    3   23 1
  10    4    5 1
  11    5   11 2
  12    6    7 1
  13    6   10 2
  14    6   26 1
  15    7    8 2
  16    7   25 1
  17    8    9 1
  18    8   11 1
  19    9   10 1
  20    9   47 1
  21   10   17 1
  22   11   48 1
  23   12   13 2
  24   12   16 1
  25   12   38 1
  26   13   14 1
  27   13   40 1
  28   14   15 1
  29   14   17 2
  30   15   16 2
  31   16   24 1
  32   17   49 1
  33   18   19 2
  34   18   22 1
  35   18   35 1
  36   19   20 1
  37   19   37 1
  38   20   21 1
  39   20   24 2
  40   21   22 1
  41   21   50 1
  42   22   23 2
  43   23   34 1
  44   24   51 1
  45   25   52 1
  46   25   53 1
  47   25   54 1
  48   26   27 2
  49   26   55 1
  50   27   56 1
  51   27   57 1
  52   28   58 1
  53   28   59 1
  54   28   60 1
  55   29   30 1
  56   29   61 1
  57   29   62 1
  58   30   31 1
  59   30   63 1
  60   30   64 1
  61   31   32 1
  62   31   33 2
  63   32   65 1
  64   34   35 1
  65   34   36 1
  66   34   66 1
  67   35   41 2
  68   36   42 2
  69   36   43 1
  70   37   67 1
  71   37   68 1
  72   37   69 1
  73   38   39 1
  74   38   70 1
  75   38   71 1
  76   39   72 1
  77   39   73 1
  78   39   74 1
  79   40   75 1
  80   40   76 1
  81   40   77 1
  82   43   44 1
  83   44   78 1
  84   44   79 1
  85   44   80 1

#	End of record

