#	Name: ASD01812892
#	Creating user name:	WinNT
#	Creation time:	15. 06. 2019 19:29

#	Modifying user name:	WinNT
#	Modification time:	15. 06. 2019 19:29

#	Program:	/corina/corina34_cracker 3.40 0067  02.08.2006

@<TRIPOS>MOLECULE
ASD01812892
  54   58    0    0    0
SMALL
NO_CHARGES


@<TRIPOS>ATOM
   1 N1             0.0039     1.3198    -0.2392 N.ar    
   2 C2             0.0337     0.0076    -0.3679 C.ar    
   3 C3             1.2358    -0.6827    -0.3834 C.ar    
   4 C4             2.4124     0.0213    -0.2618 C.ar    
   5 C5             2.3617     1.4134    -0.1261 C.ar    
   6 C6             1.1078     2.0400    -0.1192 C.ar    
   7 C7             3.8690    -0.3577    -0.2356 C.3     
   8 N8             4.6151     0.8971    -0.0787 N.am    
   9 C9             3.7392     1.9158    -0.0161 C.2     
  10 C10            6.0730     1.0192    -0.0025 C.3     
  11 C11            6.6351     1.2008    -1.3889 C.ar    
  12 O12            1.0257     3.3857     0.0100 O.3     
  13 O13            4.0432     3.0860     0.1125 O.2     
  14 C14            6.7865     2.4731    -1.9099 C.ar    
  15 C15            7.3008     2.6451    -3.1791 C.ar    
  16 C16            7.6677     1.5343    -3.9358 C.ar    
  17 C17            7.5130     0.2550    -3.4061 C.ar    
  18 C18            7.0029     0.0947    -2.1336 C.ar    
  19 C19           -0.2002     3.9608    -0.0801 C.ar    
  20 C20           -1.0155     4.0623     1.0557 C.ar    
  21 C21           -2.2755     4.6564     0.9503 C.ar    
  22 C22           -2.7085     5.1379    -0.2664 C.ar    
  23 C23           -1.9000     5.0352    -1.3864 C.ar    
  24 C24           -0.6497     4.4557    -1.2948 C.ar    
  25 C25           -0.5595     3.5595     2.3166 C.1     
  26 C26           -4.0679     5.7785    -0.3789 C.3     
  27 C27            8.2208     1.7130    -5.3014 C.2     
  28 N28            8.4209     2.8620    -5.9115 N.2     
  29 C29            8.6301     0.6834    -6.1710 C.2     
  30 C30            9.0716     1.2562    -7.3119 C.2     
  31 N31            8.9591     2.5951    -7.1769 N.pl3   
  32 C32            9.3300     3.5947    -8.1816 C.3     
  33 F33           -3.9576     7.1521    -0.1375 F       
  34 F34           -4.5765     5.5705    -1.6654 F       
  35 F35           -4.9317     5.2076     0.5620 F       
  36 N36           -0.1979     3.1607     3.3169 N.1     
  37 H37           -0.8935    -0.5381    -0.4624 H       
  38 H38            1.2490    -1.7575    -0.4889 H       
  39 H39            4.0688    -1.0205     0.6063 H       
  40 H40            4.1465    -0.8444    -1.1706 H       
  41 H41            6.3337     1.8816     0.6111 H       
  42 H42            6.4904     0.1164     0.4435 H       
  43 H43            6.5015     3.3335    -1.3226 H       
  44 H44            7.4183     3.6390    -3.5851 H       
  45 H45            7.7954    -0.6095    -3.9885 H       
  46 H46            6.8867    -0.8963    -1.7203 H       
  47 H47           -2.9095     4.7379     1.8208 H       
  48 H48           -2.2474     5.4148    -2.3359 H       
  49 H49           -0.0231     4.3837    -2.1715 H       
  50 H50            8.5971    -0.3757    -5.9625 H       
  51 H51            9.4539     0.7352    -8.1773 H       
  52 H52           10.3702     3.8864    -8.0371 H       
  53 H53            9.2065     3.1711    -9.1783 H       
  54 H54            8.6892     4.4702    -8.0769 H       
@<TRIPOS>BOND
   1    1    2 ar
   2    1    6 ar
   3    2    3 ar
   4    2   37 1
   5    3    4 ar
   6    3   38 1
   7    4    7 1
   8    4    5 ar
   9    5    6 ar
  10    5    9 1
  11    6   12 1
  12    7    8 1
  13    7   39 1
  14    7   40 1
  15    8    9 am
  16    8   10 1
  17    9   13 2
  18   10   11 1
  19   10   41 1
  20   10   42 1
  21   11   14 ar
  22   11   18 ar
  23   12   19 1
  24   14   15 ar
  25   14   43 1
  26   15   16 ar
  27   15   44 1
  28   16   17 ar
  29   16   27 1
  30   17   18 ar
  31   17   45 1
  32   18   46 1
  33   19   20 ar
  34   19   24 ar
  35   20   21 ar
  36   20   25 1
  37   21   22 ar
  38   21   47 1
  39   22   23 ar
  40   22   26 1
  41   23   24 ar
  42   23   48 1
  43   24   49 1
  44   25   36 3
  45   26   33 1
  46   26   34 1
  47   26   35 1
  48   27   29 1
  49   27   28 2
  50   28   31 1
  51   29   30 2
  52   29   50 1
  53   30   31 1
  54   30   51 1
  55   31   32 1
  56   32   52 1
  57   32   53 1
  58   32   54 1

#	End of record

