#	Name: ASD01918478
#	Creating user name:	WinNT
#	Creation time:	15. 06. 2019 20:11

#	Modifying user name:	WinNT
#	Modification time:	15. 06. 2019 20:11

#	Program:	/corina/corina34_cracker 3.40 0067  02.08.2006

@<TRIPOS>MOLECULE
ASD01918478
  44   47    0    0    0
SMALL
NO_CHARGES


@<TRIPOS>ATOM
   1 F1             0.0080    -0.0030    -0.0747 F       
   2 C2            -0.0116     1.3476    -0.0483 C.ar    
   3 C3             1.0056     2.0653    -0.6588 C.ar    
   4 C4             0.9902     3.4433    -0.6353 C.ar    
   5 C5            -0.0524     4.1166     0.0049 C.ar    
   6 C6            -1.0744     3.3889     0.6182 C.ar    
   7 C7            -1.0519     2.0111     0.5842 C.ar    
   8 C8            -0.0738     5.5934     0.0337 C.2     
   9 O9            -1.1332     6.1872    -0.0231 O.2     
  10 N10            1.0810     6.2826     0.1230 N.am    
  11 C11            1.0966     7.7504     0.0296 C.3     
  12 C12            1.5929     8.3349     1.3566 C.3     
  13 N13            2.7837     7.6001     1.7928 N.pl3   
  14 N14            3.7402     8.0153     2.7234 N.2     
  15 C15            4.6390     7.0654     2.8380 C.2     
  16 O16            5.7296     7.0925     3.6499 O.3     
  17 C17            5.9136     8.2619     4.4504 C.3     
  18 C18            7.1639     8.1123     5.2783 C.ar    
  19 C19            7.0968     7.5382     6.5340 C.ar    
  20 C20            8.2437     7.4011     7.2934 C.ar    
  21 C21            9.4577     7.8375     6.7969 C.ar    
  22 C22            9.5249     8.4108     5.5408 C.ar    
  23 C23            8.3787     8.5441     4.7797 C.ar    
  24 C24            4.2784     6.0158     1.9767 C.2     
  25 C25            3.1426     6.3732     1.3486 C.2     
  26 C26            2.3667     5.5882     0.3233 C.3     
  27 H27            1.8116     1.5435    -1.1534 H       
  28 H28            1.7832     4.0014    -1.1108 H       
  29 H29           -1.8830     3.9047     1.1146 H       
  30 H30           -1.8441     1.4473     1.0543 H       
  31 H31            1.7643     8.0569    -0.7756 H       
  32 H32            0.0891     8.1130    -0.1738 H       
  33 H33            1.8440     9.3867     1.2197 H       
  34 H34            0.8112     8.2416     2.1104 H       
  35 H35            6.0084     9.1339     3.8033 H       
  36 H36            5.0547     8.3900     5.1092 H       
  37 H37            6.1483     7.1972     6.9219 H       
  38 H38            8.1912     6.9532     8.2748 H       
  39 H39           10.3537     7.7310     7.3905 H       
  40 H40           10.4734     8.7521     5.1530 H       
  41 H41            8.4318     8.9885     3.7968 H       
  42 H42            4.8159     5.0887     1.8424 H       
  43 H43            2.1899     4.5758     0.6867 H       
  44 H44            2.9220     5.5561    -0.6140 H       
@<TRIPOS>BOND
   1    1    2 1
   2    2    7 ar
   3    2    3 ar
   4    3    4 ar
   5    3   27 1
   6    4    5 ar
   7    4   28 1
   8    5    6 ar
   9    5    8 1
  10    6    7 ar
  11    6   29 1
  12    7   30 1
  13    8    9 2
  14    8   10 am
  15   10   26 1
  16   10   11 1
  17   11   12 1
  18   11   31 1
  19   11   32 1
  20   12   13 1
  21   12   33 1
  22   12   34 1
  23   13   25 1
  24   13   14 1
  25   14   15 2
  26   15   16 1
  27   15   24 1
  28   16   17 1
  29   17   18 1
  30   17   35 1
  31   17   36 1
  32   18   23 ar
  33   18   19 ar
  34   19   20 ar
  35   19   37 1
  36   20   21 ar
  37   20   38 1
  38   21   22 ar
  39   21   39 1
  40   22   23 ar
  41   22   40 1
  42   23   41 1
  43   24   25 2
  44   24   42 1
  45   25   26 1
  46   26   43 1
  47   26   44 1

#	End of record

