#	Name: ASD06620036
#	Creating user name:	WinNT
#	Creation time:	15. 06. 2019 21:07

#	Modifying user name:	WinNT
#	Modification time:	15. 06. 2019 21:07

#	Program:	/corina/corina34_cracker 3.40 0067  02.08.2006

@<TRIPOS>MOLECULE
ASD06620036
  53   57    0    0    0
SMALL
NO_CHARGES


@<TRIPOS>ATOM
   1 C1            -0.0167     1.3797     0.0096 C.ar    
   2 C2             0.0021    -0.0041     0.0020 C.ar    
   3 C3             1.2349    -0.6673    -0.0134 C.ar    
   4 C4             2.3975     0.0930    -0.0204 C.ar    
   5 C5             2.2923     1.4695    -0.0120 C.ar    
   6 N6             1.1127     2.0628     0.0025 N.ar    
   7 C7            -0.3747    -2.1918    -0.0061 C.2     
   8 N8            -0.9810    -0.9888     0.0062 N.am    
   9 N9             0.9622    -2.0260    -0.0180 N.am    
  10 O10           -0.9476    -3.2652    -0.0058 O.2     
  11 C11           -2.4275    -0.7571     0.0217 C.3     
  12 C12           -3.7437    -1.2470    -3.3222 C.2     
  13 C13           -4.2676    -1.8902    -4.4605 C.2     
  14 N14           -4.5471    -1.1893    -5.5335 N.2     
  15 C15           -4.3458     0.1294    -5.5744 C.2     
  16 C16           -3.8448     0.7938    -4.5100 C.2     
  17 N17           -3.5379     0.1104    -3.3681 N.pl3   
  18 N18           -3.3715    -1.6873    -2.1288 N.2     
  19 C19           -2.9375    -0.6697    -1.3937 C.2     
  20 C20           -3.0296     0.4822    -2.1514 C.2     
  21 C21           -2.6534     1.8410    -1.7343 C.2     
  22 C22            1.9586    -3.0999    -0.0341 C.3     
  23 C23            1.9537    -4.0857     1.1359 C.3     
  24 C24            1.4535    -4.5293    -0.2403 C.3     
  25 C25           -1.8662     2.5811    -2.5105 C.2     
  26 C26           -1.4806     3.9738    -2.0829 C.3     
  27 C27           -2.1225     4.2881    -0.7302 C.3     
  28 C28            0.0416     4.0661    -1.9589 C.3     
  29 C29           -1.9693     4.9811    -3.1257 C.3     
  30 H30           -0.9610     1.9037     0.0169 H       
  31 H31            3.3663    -0.3842    -0.0319 H       
  32 H32            3.1894     2.0709    -0.0170 H       
  33 H33           -2.9220    -1.5813     0.5358 H       
  34 H34           -2.6404     0.1762     0.5429 H       
  35 H35           -4.4383    -2.9566    -4.4501 H       
  36 H36           -4.5871     0.6751    -6.4746 H       
  37 H37           -3.6880     1.8611    -4.5618 H       
  38 H38           -3.0161     2.2382    -0.7978 H       
  39 H39            2.9237    -2.8392    -0.4685 H       
  40 H40            2.9155    -4.4740     1.4710 H       
  41 H41            1.2091    -3.9353     1.9176 H       
  42 H42            0.3798    -4.6707    -0.3640 H       
  43 H43            2.0862    -5.2093    -0.8106 H       
  44 H44           -1.5036     2.1839    -3.4470 H       
  45 H45           -1.7744     3.5705     0.0127 H       
  46 H46           -1.8436     5.2954    -0.4209 H       
  47 H47           -3.2069     4.2224    -0.8185 H       
  48 H48            0.4989     3.8422    -2.9226 H       
  49 H49            0.3205     5.0734    -1.6496 H       
  50 H50            0.3897     3.3485    -1.2160 H       
  51 H51           -3.0537     4.9154    -3.2141 H       
  52 H52           -1.6904     5.9884    -2.8165 H       
  53 H53           -1.5120     4.7572    -4.0895 H       
@<TRIPOS>BOND
   1    1    2 ar
   2    1    6 ar
   3    1   30 1
   4    2    3 ar
   5    2    8 1
   6    3    4 ar
   7    3    9 1
   8    4    5 ar
   9    4   31 1
  10    5    6 ar
  11    5   32 1
  12    7    8 am
  13    7    9 am
  14    7   10 2
  15    8   11 1
  16    9   22 1
  17   11   19 1
  18   11   33 1
  19   11   34 1
  20   12   13 1
  21   12   17 1
  22   12   18 2
  23   13   14 2
  24   13   35 1
  25   14   15 1
  26   15   16 2
  27   15   36 1
  28   16   17 1
  29   16   37 1
  30   17   20 1
  31   18   19 1
  32   19   20 2
  33   20   21 1
  34   21   25 2
  35   21   38 1
  36   22   23 1
  37   22   24 1
  38   22   39 1
  39   23   24 1
  40   23   40 1
  41   23   41 1
  42   24   42 1
  43   24   43 1
  44   25   26 1
  45   25   44 1
  46   26   27 1
  47   26   28 1
  48   26   29 1
  49   27   45 1
  50   27   46 1
  51   27   47 1
  52   28   48 1
  53   28   49 1
  54   28   50 1
  55   29   51 1
  56   29   52 1
  57   29   53 1

#	End of record

