#	Name: ASD03082391
#	Creating user name:	WinNT
#	Creation time:	15. 06. 2019 20:27

#	Modifying user name:	WinNT
#	Modification time:	15. 06. 2019 20:27

#	Program:	/corina/corina34_cracker 3.40 0067  02.08.2006

@<TRIPOS>MOLECULE
ASD03082391
  50   52    0    0    0
SMALL
NO_CHARGES


@<TRIPOS>ATOM
   1 C1            -0.6174    -2.9627    -1.4642 C.ar    
   2 C2            -1.5463    -2.2798    -0.6891 C.ar    
   3 C3            -2.5173    -2.9850     0.0097 C.ar    
   4 C4            -2.5569    -4.3680    -0.0682 C.ar    
   5 C5            -1.6267    -5.0458    -0.8440 C.ar    
   6 C6            -0.6601    -4.3427    -1.5395 C.ar    
   7 Cl7            0.5016    -5.1940    -2.5088 Cl      
   8 N8            -1.5033    -0.8857    -0.6123 N.pl3   
   9 C9            -2.6774    -0.1614    -0.3800 C.2     
  10 C10           -2.7634     1.2274    -0.1817 C.2     
  11 N11           -3.8895    -0.6606    -0.3153 N.2     
  12 N12           -4.7830     0.3898    -0.0693 N.pl3   
  13 C13           -4.0647     1.5404     0.0084 C.2     
  14 C14           -6.1696     0.2750     0.0682 C.ar    
  15 C15           -7.0261     1.1943    -0.5343 C.ar    
  16 C16           -6.7311    -0.7653     0.8065 C.ar    
  17 C17           -8.1040    -0.8437     0.9177 C.ar    
  18 N18           -8.8819     0.0498     0.3363 N.ar    
  19 C19           -8.3888     1.0457    -0.3749 C.ar    
  20 C20           -8.7232    -1.9642     1.7129 C.3     
  21 H21           -9.0600     1.7560    -0.8347 H       
  22 C22           -4.6191     2.9186     0.2617 C.3     
  23 C23           -4.7575     3.6648    -1.0668 C.3     
  24 C24           -5.4475     5.0092    -0.8273 C.3     
  25 C25           -5.6981     5.7001    -2.1692 C.3     
  26 O26           -3.4611     3.8877    -1.6252 O.3     
  27 O27           -3.5059    -5.0604     0.6150 O.3     
  28 C28           -3.4874    -6.4837     0.4888 C.3     
  29 H29            0.1355    -2.4152    -2.0117 H       
  30 H30           -3.2403    -2.4563     0.6133 H       
  31 H31           -1.6577    -6.1236    -0.9042 H       
  32 H32           -0.6594    -0.4198    -0.7200 H       
  33 H33           -1.9361     1.9216    -0.1810 H       
  34 H34           -6.6290     2.0119    -1.1175 H       
  35 H35           -6.1002    -1.5001     1.2846 H       
  36 H36           -8.8371    -1.6530     2.7513 H       
  37 H37           -9.7010    -2.2075     1.2972 H       
  38 H38           -8.0794    -2.8424     1.6653 H       
  39 H39           -5.5974     2.8354     0.7352 H       
  40 H40           -3.9434     3.4672     0.9179 H       
  41 H41           -5.3532     3.0687    -1.7580 H       
  42 H42           -6.3983     4.8443    -0.3203 H       
  43 H43           -4.8099     5.6396    -0.2075 H       
  44 H44           -4.7474     5.8650    -2.6761 H       
  45 H45           -6.3358     5.0697    -2.7889 H       
  46 H46           -6.1898     6.6578    -1.9985 H       
  47 H47           -2.8755     4.4128    -1.0627 H       
  48 H48           -2.5314    -6.8676     0.8449 H       
  49 H49           -4.2948    -6.9117     1.0828 H       
  50 H50           -3.6217    -6.7573    -0.5577 H       
@<TRIPOS>BOND
   1    1    2 ar
   2    1    6 ar
   3    1   29 1
   4    2    3 ar
   5    2    8 1
   6    3    4 ar
   7    3   30 1
   8    4    5 ar
   9    4   27 1
  10    5    6 ar
  11    5   31 1
  12    6    7 1
  13    8    9 1
  14    8   32 1
  15    9   10 1
  16    9   11 2
  17   10   13 2
  18   10   33 1
  19   11   12 1
  20   12   13 1
  21   12   14 1
  22   13   22 1
  23   14   15 ar
  24   14   16 ar
  25   15   19 ar
  26   15   34 1
  27   16   17 ar
  28   16   35 1
  29   17   18 ar
  30   17   20 1
  31   18   19 ar
  32   19   21 1
  33   20   36 1
  34   20   37 1
  35   20   38 1
  36   22   23 1
  37   22   39 1
  38   22   40 1
  39   23   24 1
  40   23   26 1
  41   23   41 1
  42   24   25 1
  43   24   42 1
  44   24   43 1
  45   25   44 1
  46   25   45 1
  47   25   46 1
  48   26   47 1
  49   27   28 1
  50   28   48 1
  51   28   49 1
  52   28   50 1

#	End of record

