#	Name: ASD01883818
#	Creating user name:	WinNT
#	Creation time:	15. 06. 2019 19:47

#	Modifying user name:	WinNT
#	Modification time:	15. 06. 2019 19:47

#	Program:	/corina/corina34_cracker 3.40 0067  02.08.2006

@<TRIPOS>MOLECULE
ASD01883818
  60   64    0    0    0
SMALL
NO_CHARGES


@<TRIPOS>ATOM
   1 C1            -0.0167     1.3839     0.0097 C.ar    
   2 C2             0.0021    -0.0041     0.0020 C.ar    
   3 C3             1.2115    -0.6812    -0.0052 C.ar    
   4 C4             2.4025     0.0382    -0.0054 C.ar    
   5 C5             2.3753     1.4353    -0.0133 C.ar    
   6 C6             1.1675     2.0992     0.0022 C.ar    
   7 O7            -1.1657    -0.6993     0.0021 O.3     
   8 C8            -2.3745     0.0628     0.0103 C.3     
   9 C9            -3.5572    -0.8711     0.0091 C.ar    
  10 C10           -4.0938    -1.3045     1.2043 C.ar    
  11 C11           -5.1877    -2.1677     1.2018 C.ar    
  12 C12           -5.7337    -2.5885    -0.0089 C.ar    
  13 C13           -5.1890    -2.1488    -1.1986 C.ar    
  14 C14           -4.1066    -1.2879    -1.1902 C.ar    
  15 C15           -5.7687    -2.6375     2.4840 C.ar    
  16 C16           -5.2204    -2.2154     3.6949 C.ar    
  17 C17           -5.7581    -2.6502     4.8902 C.ar    
  18 C18           -6.8431    -3.5059     4.8954 C.ar    
  19 C19           -7.4017    -3.9360     3.6876 C.ar    
  20 C20           -6.8639    -3.4942     2.4793 C.ar    
  21 Cl21          -7.5131    -4.0478     6.4025 Cl      
  22 C22           -8.5609    -4.8508     3.6920 C.2     
  23 O23           -9.0974    -5.2639     2.5273 O.3     
  24 O24           -9.0308    -5.2308     4.7458 O.2     
  25 C25            3.7099    -0.6520    -0.0099 C.2     
  26 N26            4.8287     0.0506     0.2509 N.am    
  27 C27            4.7580     1.4408     0.6959 C.3     
  28 C28            3.6715     2.2009    -0.0606 C.3     
  29 C29            6.1366    -0.5886     0.0865 C.3     
  30 C30            6.2449    -1.8130     1.0121 C.3     
  31 C31            6.4618    -3.0376     0.0993 C.3     
  32 C32            7.0669    -2.4430    -1.1965 C.3     
  33 C33            6.2914    -1.1118    -1.3564 C.3     
  34 O34            3.7743    -1.8425    -0.2464 O.2     
  35 H35           -0.9609     1.9083     0.0170 H       
  36 H36            1.2293    -1.7610    -0.0104 H       
  37 H37            1.1456     3.1790     0.0081 H       
  38 H38           -2.4048     0.6864     0.9038 H       
  39 H39           -2.4107     0.6961    -0.8762 H       
  40 H40           -3.6664    -0.9755     2.1401 H       
  41 H41           -6.5813    -3.2577    -0.0166 H       
  42 H42           -5.6115    -2.4743    -2.1377 H       
  43 H43           -3.6838    -0.9461    -2.1233 H       
  44 H44           -4.3723    -1.5467     3.6978 H       
  45 H45           -5.3287    -2.3205     5.8247 H       
  46 H46           -7.2912    -3.8227     1.5434 H       
  47 H47           -9.8551    -5.8622     2.5807 H       
  48 H48            4.5354     1.4647     1.7626 H       
  49 H49            5.7201     1.9223     0.5207 H       
  50 H50            3.9771     2.3303    -1.0989 H       
  51 H51            3.5299     3.1799     0.3971 H       
  52 H52            6.9306     0.1227     0.3138 H       
  53 H53            7.0920    -1.6964     1.6880 H       
  54 H54            5.3243    -1.9317     1.5836 H       
  55 H55            7.1589    -3.7378     0.5596 H       
  56 H56            5.5118    -3.5280    -0.1133 H       
  57 H57            8.1338    -2.2563    -1.0743 H       
  58 H58            6.8836    -3.1012    -2.0458 H       
  59 H59            5.3139    -1.2911    -1.8041 H       
  60 H60            6.8643    -0.4065    -1.9585 H       
@<TRIPOS>BOND
   1    1    2 ar
   2    1    6 ar
   3    1   35 1
   4    2    3 ar
   5    2    7 1
   6    3    4 ar
   7    3   36 1
   8    4    5 ar
   9    4   25 1
  10    5    6 ar
  11    5   28 1
  12    6   37 1
  13    7    8 1
  14    8    9 1
  15    8   38 1
  16    8   39 1
  17    9   10 ar
  18    9   14 ar
  19   10   11 ar
  20   10   40 1
  21   11   12 ar
  22   11   15 1
  23   12   13 ar
  24   12   41 1
  25   13   14 ar
  26   13   42 1
  27   14   43 1
  28   15   16 ar
  29   15   20 ar
  30   16   17 ar
  31   16   44 1
  32   17   18 ar
  33   17   45 1
  34   18   19 ar
  35   18   21 1
  36   19   20 ar
  37   19   22 1
  38   20   46 1
  39   22   23 1
  40   22   24 2
  41   23   47 1
  42   25   26 am
  43   25   34 2
  44   26   27 1
  45   26   29 1
  46   27   28 1
  47   27   48 1
  48   27   49 1
  49   28   50 1
  50   28   51 1
  51   29   30 1
  52   29   33 1
  53   29   52 1
  54   30   31 1
  55   30   53 1
  56   30   54 1
  57   31   32 1
  58   31   55 1
  59   31   56 1
  60   32   33 1
  61   32   57 1
  62   32   58 1
  63   33   59 1
  64   33   60 1

#	End of record

