#	Name: ASD02039170
#	Creating user name:	WinNT
#	Creation time:	15. 06. 2019 20:17

#	Modifying user name:	WinNT
#	Modification time:	15. 06. 2019 20:17

#	Program:	/corina/corina34_cracker 3.40 0067  02.08.2006

@<TRIPOS>MOLECULE
ASD02039170
  36   39    0    0    0
SMALL
NO_CHARGES


@<TRIPOS>ATOM
   1 N1             0.0021     1.2625     0.3692 N.2     
   2 C2             0.0063    -0.0135     0.0889 C.2     
   3 N3             1.2922    -0.3755    -0.1077 N.2     
   4 C4             1.9960     0.7158     0.0676 C.2     
   5 O5             1.1352     1.6953     0.3609 O.3     
   6 C6             3.4938     0.8426    -0.0406 C.3     
   7 O7             3.8482     1.1699    -1.3857 O.3     
   8 C8             5.1723     1.3213    -1.6558 C.ar    
   9 N9            -1.1051    -0.8435     0.0088 N.pl3   
  10 C10           -2.3900    -0.3050     0.1298 C.ar    
  11 C11           -2.6365     1.0032    -0.2675 C.ar    
  12 C12           -3.9060     1.5330    -0.1471 C.ar    
  13 C13           -4.9330     0.7624     0.3692 C.ar    
  14 C14           -4.6907    -0.5420     0.7661 C.ar    
  15 C15           -3.4230    -1.0789     0.6419 C.ar    
  16 C16            6.1106     1.1560    -0.6382 C.ar    
  17 C17            7.4447     1.3034    -0.8877 C.ar    
  18 C18            7.8835     1.6229    -2.1702 C.ar    
  19 C19            6.9441     1.7919    -3.2048 C.ar    
  20 C20            5.5796     1.6318    -2.9359 C.ar    
  21 Cl21          -6.5274     1.4322     0.5200 Cl      
  22 N22            9.1215     1.8323    -2.7236 N.pl3   
  23 N23            8.9703     2.1282    -4.0822 N.2     
  24 C24            7.7085     2.1147    -4.4052 C.2     
  25 Cl25          -5.9814    -1.5057     1.4133 Cl      
  26 H26            3.8411     1.6298     0.6285 H       
  27 H27            3.9595    -0.1027     0.2381 H       
  28 H28           -0.9897    -1.7964    -0.1311 H       
  29 H29           -1.8355     1.6056    -0.6699 H       
  30 H30           -4.0976     2.5500    -0.4560 H       
  31 H31           -3.2340    -2.0962     0.9515 H       
  32 H32            5.7783     0.9089     0.3593 H       
  33 H33            8.1604     1.1725    -0.0896 H       
  34 H34            4.8511     1.7590    -3.7230 H       
  35 H35            9.9660     1.7830    -2.2489 H       
  36 H36            7.3008     2.3080    -5.3864 H       
@<TRIPOS>BOND
   1    1    2 2
   2    1    5 1
   3    2    3 1
   4    2    9 1
   5    3    4 2
   6    4    5 1
   7    4    6 1
   8    6    7 1
   9    6   26 1
  10    6   27 1
  11    7    8 1
  12    8   16 ar
  13    8   20 ar
  14    9   10 1
  15    9   28 1
  16   10   11 ar
  17   10   15 ar
  18   11   12 ar
  19   11   29 1
  20   12   13 ar
  21   12   30 1
  22   13   14 ar
  23   13   21 1
  24   14   15 ar
  25   14   25 1
  26   15   31 1
  27   16   17 ar
  28   16   32 1
  29   17   18 ar
  30   17   33 1
  31   18   19 ar
  32   18   22 1
  33   19   20 ar
  34   19   24 1
  35   20   34 1
  36   22   23 1
  37   22   35 1
  38   23   24 2
  39   24   36 1

#	End of record

