#	Name: ASD01810090
#	Creating user name:	WinNT
#	Creation time:	15. 06. 2019 19:23

#	Modifying user name:	WinNT
#	Modification time:	15. 06. 2019 19:23

#	Program:	/corina/corina34_cracker 3.40 0067  02.08.2006

@<TRIPOS>MOLECULE
ASD01810090
  61   65    0    0    0
SMALL
NO_CHARGES


@<TRIPOS>ATOM
   1 C1             0.0139     1.3186    -0.1132 C.ar    
   2 C2             0.0424    -0.0660    -0.1245 C.ar    
   3 C3             1.2507    -0.7379    -0.1253 C.ar    
   4 C4             2.4378    -0.0222    -0.1151 C.ar    
   5 C5             2.4084     1.3740    -0.1041 C.ar    
   6 C6             1.1924     2.0394    -0.1030 C.ar    
   7 N7             3.7794    -0.3966    -0.1135 N.am    
   8 C8             4.5316     0.7199    -0.1020 C.2     
   9 N9             3.7337     1.8044    -0.0962 N.am    
  10 O10            5.7482     0.7452    -0.0977 O.2     
  11 C11            4.1823     3.1989    -0.0843 C.3     
  12 C12            5.0217     3.4557     1.1703 C.3     
  13 C13            5.5379     4.8962     1.1468 C.3     
  14 N14            6.3496     5.1070    -0.0587 N.3     
  15 C15            5.5524     4.9122    -1.2764 C.3     
  16 C16            5.0366     3.4722    -1.3252 C.3     
  17 C17            6.9755     6.4359    -0.0461 C.3     
  18 C18            7.9090     6.5712    -1.2513 C.3     
  19 C19            8.5861     7.9450    -1.2160 C.3     
  20 N20            7.5481     8.9819    -1.1373 N.am    
  21 C21            6.5436     8.8961    -0.0685 C.3     
  22 C22            5.8894     7.5118    -0.1167 C.3     
  23 C23            7.5184     9.9928    -2.0282 C.2     
  24 O24            8.3988    10.0960    -2.8598 O.2     
  25 C25            6.4149    10.9761    -1.9939 C.ar    
  26 C26            5.6448    11.2053    -3.1349 C.ar    
  27 C27            4.6160    12.1240    -3.0961 C.ar    
  28 C28            4.3476    12.8175    -1.9296 C.ar    
  29 C29            5.1074    12.5949    -0.7946 C.ar    
  30 C30            6.1350    11.6750    -0.8184 C.ar    
  31 C31            5.9365    10.4515    -4.4069 C.3     
  32 Cl32          -1.4448    -0.9614    -0.1373 Cl      
  33 H33           -0.9335     1.8371    -0.1168 H       
  34 H34            1.2696    -1.8177    -0.1335 H       
  35 H35            1.1663     3.1190    -0.0948 H       
  36 H36            4.1147    -1.3068    -0.1191 H       
  37 H37            3.3159     3.8603    -0.0845 H       
  38 H38            4.4064     3.3041     2.0572 H       
  39 H39            5.8662     2.7668     1.1905 H       
  40 H40            4.6929     5.5847     1.1406 H       
  41 H41            6.1478     5.0780     2.0317 H       
  42 H42            4.7073     5.6007    -1.2712 H       
  43 H43            6.1728     5.1056    -2.1515 H       
  44 H44            5.8813     2.7836    -1.3443 H       
  45 H45            4.4320     3.3324    -2.2213 H       
  46 H46            7.5488     6.5587     0.8728 H       
  47 H47            8.6684     5.7902    -1.2128 H       
  48 H48            7.3322     6.4735    -2.1710 H       
  49 H49            9.2348     8.0102    -0.3425 H       
  50 H50            9.1749     8.0855    -2.1224 H       
  51 H51            7.0257     9.0390     0.8985 H       
  52 H52            5.7847     9.6643    -0.2178 H       
  53 H53            5.3316     7.4051    -1.0471 H       
  54 H54            5.2113     7.4002     0.7294 H       
  55 H55            4.0193    12.3024    -3.9784 H       
  56 H56            3.5417    13.5360    -1.9046 H       
  57 H57            4.8926    13.1395     0.1129 H       
  58 H58            6.7270    11.5019     0.0682 H       
  59 H59            5.4279     9.4877    -4.3828 H       
  60 H60            5.5813    11.0285    -5.2607 H       
  61 H61            7.0111    10.2932    -4.4970 H       
@<TRIPOS>BOND
   1    1    2 ar
   2    1    6 ar
   3    1   33 1
   4    2    3 ar
   5    2   32 1
   6    3    4 ar
   7    3   34 1
   8    4    5 ar
   9    4    7 1
  10    5    6 ar
  11    5    9 1
  12    6   35 1
  13    7    8 am
  14    7   36 1
  15    8    9 am
  16    8   10 2
  17    9   11 1
  18   11   12 1
  19   11   16 1
  20   11   37 1
  21   12   13 1
  22   12   38 1
  23   12   39 1
  24   13   14 1
  25   13   40 1
  26   13   41 1
  27   14   15 1
  28   14   17 1
  29   15   16 1
  30   15   42 1
  31   15   43 1
  32   16   44 1
  33   16   45 1
  34   17   18 1
  35   17   22 1
  36   17   46 1
  37   18   19 1
  38   18   47 1
  39   18   48 1
  40   19   20 1
  41   19   49 1
  42   19   50 1
  43   20   21 1
  44   20   23 am
  45   21   22 1
  46   21   51 1
  47   21   52 1
  48   22   53 1
  49   22   54 1
  50   23   24 2
  51   23   25 1
  52   25   26 ar
  53   25   30 ar
  54   26   27 ar
  55   26   31 1
  56   27   28 ar
  57   27   55 1
  58   28   29 ar
  59   28   56 1
  60   29   30 ar
  61   29   57 1
  62   30   58 1
  63   31   59 1
  64   31   60 1
  65   31   61 1

#	End of record

