#	Name: ASD04230133
#	Creating user name:	WinNT
#	Creation time:	15. 06. 2019 20:48

#	Modifying user name:	WinNT
#	Modification time:	15. 06. 2019 20:48

#	Program:	/corina/corina34_cracker 3.40 0067  02.08.2006

@<TRIPOS>MOLECULE
ASD04230133
  42   45    0    0    0
SMALL
NO_CHARGES


@<TRIPOS>ATOM
   1 C1            -0.0201     1.3790     0.0495 C.ar    
   2 C2            -0.0003    -0.0082     0.0382 C.ar    
   3 C3             1.1848    -0.6862     0.0294 C.ar    
   4 C4             2.3957     0.0212     0.0422 C.ar    
   5 C5             2.3815     1.4276     0.0206 C.ar    
   6 C6             1.1610     2.0997     0.0379 C.ar    
   7 C7             3.6343    -0.6710     0.0720 C.2     
   8 C8             4.7886     0.0708     0.2852 C.2     
   9 C9             4.6293     1.5213     0.4957 C.2     
  10 O10            3.5429     2.1221    -0.0390 O.3     
  11 C11            6.1166    -0.5650     0.3009 C.2     
  12 N12            7.2188     0.1818     0.5104 N.am    
  13 O13            6.2189    -1.7642     0.1248 O.2     
  14 C14            8.4676    -0.4350     0.6376 C.ar    
  15 C15            9.6061     0.1931     0.1478 C.ar    
  16 C16           10.8418    -0.4134     0.2722 C.ar    
  17 C17           10.9516    -1.6464     0.8833 C.ar    
  18 C18            9.8149    -2.2835     1.3776 C.ar    
  19 C19            8.5709    -1.6714     1.2580 C.ar    
  20 C20            9.9316    -3.6099     2.0347 C.2     
  21 O21            5.4495     2.1573     1.1309 O.2     
  22 C22           11.0832    -4.3156     2.2275 C.2     
  23 C23            8.8743    -4.3655     2.5778 C.2     
  24 N24            9.3736    -5.4701     3.0656 N.2     
  25 N25           10.7582    -5.4623     2.8578 N.pl3   
  26 O26            1.1309     3.4591     0.0425 O.3     
  27 C27           -0.1564     4.0794     0.0606 C.3     
  28 H28           -0.9655     1.9009     0.0629 H       
  29 H29           -0.9306    -0.5567     0.0366 H       
  30 H30            1.1898    -1.7661     0.0130 H       
  31 H31            3.6777    -1.7412    -0.0664 H       
  32 H32            7.1460     1.1470     0.5730 H       
  33 H33            9.5252     1.1574    -0.3318 H       
  34 H34           11.7239     0.0785    -0.1101 H       
  35 H35           11.9187    -2.1176     0.9782 H       
  36 H36            7.6873    -2.1612     1.6398 H       
  37 H37           12.0754    -4.0110     1.9289 H       
  38 H38            7.8325    -4.0813     2.5895 H       
  39 H39           11.3768    -6.1614     3.1214 H       
  40 H40           -0.7179     3.7769    -0.8234 H       
  41 H41           -0.6956     3.7714     0.9564 H       
  42 H42           -0.0376     5.1629     0.0624 H       
@<TRIPOS>BOND
   1    1    2 ar
   2    1    6 ar
   3    1   28 1
   4    2    3 ar
   5    2   29 1
   6    3    4 ar
   7    3   30 1
   8    4    5 ar
   9    4    7 1
  10    5    6 ar
  11    5   10 1
  12    6   26 1
  13    7    8 2
  14    7   31 1
  15    8    9 1
  16    8   11 1
  17    9   10 1
  18    9   21 2
  19   11   12 am
  20   11   13 2
  21   12   14 1
  22   12   32 1
  23   14   15 ar
  24   14   19 ar
  25   15   16 ar
  26   15   33 1
  27   16   17 ar
  28   16   34 1
  29   17   18 ar
  30   17   35 1
  31   18   19 ar
  32   18   20 1
  33   19   36 1
  34   20   23 1
  35   20   22 2
  36   22   25 1
  37   22   37 1
  38   23   24 2
  39   23   38 1
  40   24   25 1
  41   25   39 1
  42   26   27 1
  43   27   40 1
  44   27   41 1
  45   27   42 1

#	End of record

