#	Name: ASD07300875
#	Creating user name:	WinNT
#	Creation time:	15. 06. 2019 21:10

#	Modifying user name:	WinNT
#	Modification time:	15. 06. 2019 21:10

#	Program:	/corina/corina34_cracker 3.40 0067  02.08.2006

@<TRIPOS>MOLECULE
ASD07300875
  44   48    0    0    0
SMALL
NO_CHARGES


@<TRIPOS>ATOM
   1 N1            -0.0163     1.3527     0.0095 N.am    
   2 C2             0.0021    -0.0041     0.0020 C.2     
   3 N3             1.1018    -0.6986    -0.0118 N.2     
   4 C4             2.3098    -0.1133    -0.0201 C.2     
   5 C5             2.3914     1.2881    -0.0138 C.2     
   6 C6             1.1433     2.0510     0.0022 C.2     
   7 N7             3.5868    -0.5761    -0.0344 N.pl3   
   8 N8             4.4535     0.5241    -0.0369 N.2     
   9 C9             3.7572     1.6272    -0.0249 C.2     
  10 O10            1.1474     3.2693     0.0079 O.2     
  11 C11            3.9887    -1.9848    -0.0448 C.3     
  12 C12            4.8114    -2.2736    -1.3042 C.3     
  13 C13            5.2930    -3.7264    -1.2676 C.3     
  14 O14            6.0561    -3.9441    -0.0792 O.3     
  15 C15            5.3246    -3.7351     1.1304 C.3     
  16 C16            4.8443    -2.2827     1.1903 C.3     
  17 C17           -1.3127    -0.7405     0.0106 C.3     
  18 C18           -1.2205    -2.1589     0.5976 C.3     
  19 C19           -2.1806    -2.5990    -0.5202 C.3     
  20 C20           -1.6559    -1.4040    -1.3336 C.3     
  21 C21           -1.8080    -2.2794     1.9802 C.2     
  22 O22           -1.1442    -2.6610     3.0794 O.3     
  23 C23           -2.0115    -2.6424     4.1105 C.2     
  24 C24           -3.1986    -2.2472     3.6214 C.2     
  25 N25           -3.0435    -2.0242     2.3043 N.2     
  26 H26           -0.8640     1.8242     0.0160 H       
  27 H27            4.1599     2.6293    -0.0236 H       
  28 H28            3.1010    -2.6173    -0.0362 H       
  29 H29            4.1923    -2.1172    -2.1875 H       
  30 H30            5.6719    -1.6054    -1.3383 H       
  31 H31            4.4321    -4.3950    -1.2744 H       
  32 H32            5.9148    -3.9253    -2.1405 H       
  33 H33            4.4642    -4.4038     1.1551 H       
  34 H34            5.9692    -3.9403     1.9851 H       
  35 H35            5.7055    -1.6147     1.2065 H       
  36 H36            4.2488    -2.1328     2.0908 H       
  37 H37           -2.1272    -0.1477     0.4270 H       
  38 H38           -0.2270    -2.6003     0.5188 H       
  39 H39           -1.9302    -3.5667    -0.9549 H       
  40 H40           -3.2332    -2.5148    -0.2499 H       
  41 H41           -2.4323    -0.8818    -1.8927 H       
  42 H42           -0.7814    -1.6391    -1.9403 H       
  43 H43           -1.7935    -2.8976     5.1370 H       
  44 H44           -4.1118    -2.1261     4.1851 H       
@<TRIPOS>BOND
   1    1    2 1
   2    1    6 am
   3    1   26 1
   4    2    3 2
   5    2   17 1
   6    3    4 1
   7    4    5 2
   8    4    7 1
   9    5    6 1
  10    5    9 1
  11    6   10 2
  12    7    8 1
  13    7   11 1
  14    8    9 2
  15    9   27 1
  16   11   12 1
  17   11   16 1
  18   11   28 1
  19   12   13 1
  20   12   29 1
  21   12   30 1
  22   13   14 1
  23   13   31 1
  24   13   32 1
  25   14   15 1
  26   15   16 1
  27   15   33 1
  28   15   34 1
  29   16   35 1
  30   16   36 1
  31   17   18 1
  32   17   20 1
  33   17   37 1
  34   18   19 1
  35   18   21 1
  36   18   38 1
  37   19   20 1
  38   19   39 1
  39   19   40 1
  40   20   41 1
  41   20   42 1
  42   21   22 1
  43   21   25 2
  44   22   23 1
  45   23   24 2
  46   23   43 1
  47   24   25 1
  48   24   44 1

#	End of record

