#	Name: ASD01917048
#	Creating user name:	WinNT
#	Creation time:	15. 06. 2019 20:08

#	Modifying user name:	WinNT
#	Modification time:	15. 06. 2019 20:08

#	Program:	/corina/corina34_cracker 3.40 0067  02.08.2006

@<TRIPOS>MOLECULE
ASD01917048
  40   42    0    0    0
SMALL
NO_CHARGES


@<TRIPOS>ATOM
   1 C1             0.0224     1.3587     0.0225 C.ar    
   2 C2             0.0108    -0.0271    -0.1374 C.ar    
   3 C3            -1.2637    -0.7743    -0.0509 C.2     
   4 N4            -2.4692    -0.2672    -0.1989 N.2     
   5 C5            -3.3848    -1.2317    -0.0564 C.2     
   6 N6            -2.7717    -2.3705     0.1853 N.2     
   7 N7            -1.3938    -2.0999     0.1883 N.pl3   
   8 C8            -0.3114    -3.0609     0.4147 C.3     
   9 C9             0.0854    -3.6887    -0.8967 C.2     
  10 O10            1.0648    -4.6058    -0.9325 O.3     
  11 O11           -0.4781    -3.3664    -1.9157 O.2     
  12 C12            1.3941    -5.1682    -2.2301 C.3     
  13 C13           -4.8540    -1.0473    -0.1548 C.ar    
  14 C14           -5.7075    -2.1354     0.0143 C.ar    
  15 C15           -5.3841     0.2158    -0.4111 C.ar    
  16 C16           -6.7505     0.3828    -0.5018 C.ar    
  17 C17           -7.5956    -0.7031    -0.3382 C.ar    
  18 C18           -7.0731    -1.9594    -0.0782 C.ar    
  19 F19           -8.9332    -0.5351    -0.4270 F       
  20 C20            1.2054    -0.7055    -0.3795 C.ar    
  21 C21            2.3903    -0.0031    -0.4594 C.ar    
  22 C22            2.3953     1.3712    -0.3000 C.ar    
  23 C23            1.2139     2.0497    -0.0596 C.ar    
  24 C24           -7.3249     1.7482    -0.7789 C.3     
  25 H25           -0.8998     1.8900     0.2058 H       
  26 H26            0.5473    -2.5461     0.8456 H       
  27 H27           -0.6518    -3.8366     1.1006 H       
  28 H28            1.7146    -4.3710    -2.9008 H       
  29 H29            2.1993    -5.8942    -2.1177 H       
  30 H30            0.5155    -5.6615    -2.6458 H       
  31 H31           -5.3010    -3.1152     0.2170 H       
  32 H32           -4.7262     1.0628    -0.5380 H       
  33 H33           -7.7353    -2.8032     0.0484 H       
  34 H34            1.2028    -1.7783    -0.5038 H       
  35 H35            3.3159    -0.5272    -0.6465 H       
  36 H36            3.3254     1.9165    -0.3630 H       
  37 H37            1.2242     3.1226     0.0640 H       
  38 H38           -7.4191     1.8912    -1.8553 H       
  39 H39           -8.3074     1.8302    -0.3141 H       
  40 H40           -6.6636     2.5109    -0.3675 H       
@<TRIPOS>BOND
   1    1    2 ar
   2    1   23 ar
   3    1   25 1
   4    2    3 1
   5    2   20 ar
   6    3    4 2
   7    3    7 1
   8    4    5 1
   9    5    6 2
  10    5   13 1
  11    6    7 1
  12    7    8 1
  13    8    9 1
  14    8   26 1
  15    8   27 1
  16    9   10 1
  17    9   11 2
  18   10   12 1
  19   12   28 1
  20   12   29 1
  21   12   30 1
  22   13   14 ar
  23   13   15 ar
  24   14   18 ar
  25   14   31 1
  26   15   16 ar
  27   15   32 1
  28   16   17 ar
  29   16   24 1
  30   17   18 ar
  31   17   19 1
  32   18   33 1
  33   20   21 ar
  34   20   34 1
  35   21   22 ar
  36   21   35 1
  37   22   23 ar
  38   22   36 1
  39   23   37 1
  40   24   38 1
  41   24   39 1
  42   24   40 1

#	End of record

