#	Name: ASD03330114
#	Creating user name:	WinNT
#	Creation time:	15. 06. 2019 20:36

#	Modifying user name:	WinNT
#	Modification time:	15. 06. 2019 20:36

#	Program:	/corina/corina34_cracker 3.40 0067  02.08.2006

@<TRIPOS>MOLECULE
ASD03330114
  72   76    0    0    0
SMALL
NO_CHARGES


@<TRIPOS>ATOM
   1 N1            -0.6743     1.3356     0.0796 N.3     
   2 C2            -0.6912    -0.1324     0.0479 C.3     
   3 C3            -0.3838    -0.6168    -1.3709 C.3     
   4 C4             0.9909    -0.0942    -1.7969 C.3     
   5 C5             0.9970     1.4344    -1.7086 C.3     
   6 C6             0.6496     1.8593    -0.2800 C.3     
   7 C7             2.0487    -0.6557    -0.8820 C.2     
   8 O8             2.8241     0.0900    -0.3220 O.2     
   9 N9             2.1331    -1.9865    -0.6863 N.am    
  10 C10            1.2734    -0.5179    -3.2152 C.ar    
  11 C11            2.4154    -0.0733    -3.8549 C.ar    
  12 C12            2.6745    -0.4619    -5.1560 C.ar    
  13 C13            1.7919    -1.2954    -5.8172 C.ar    
  14 C14            0.6504    -1.7406    -5.1772 C.ar    
  15 C15            0.3935    -1.3556    -3.8747 C.ar    
  16 C16           -1.1007     1.8387     1.3923 C.3     
  17 C17           -0.8393     3.3207     1.4713 C.2     
  18 C18           -1.7050     4.2662     1.1116 C.2     
  19 C19           -1.2531     5.5719     1.2693 C.2     
  20 C20            0.0179     5.6643     1.7727 C.2     
  21 S21            0.6490     4.0480     2.0587 S.3     
  22 C22           -2.0727     6.7570     0.9238 C.ar    
  23 C23           -2.6052     6.8889    -0.3585 C.ar    
  24 C24           -3.3676     7.9933    -0.6765 C.ar    
  25 C25           -3.6047     8.9732     0.2777 C.ar    
  26 C26           -3.0761     8.8452     1.5549 C.ar    
  27 C27           -2.3181     7.7405     1.8818 C.ar    
  28 O28           -4.3556    10.0607    -0.0395 O.3     
  29 C29           -4.5601    11.0305     0.9900 C.3     
  30 C30           -5.4224    12.1733     0.4501 C.3     
  31 C31           -5.6413    13.2116     1.5523 C.3     
  32 O32           -6.4467    14.2789     1.0481 O.3     
  33 C33            0.7416     6.9230     2.0383 C.ar    
  34 C34            1.3776     7.1212     3.2674 C.ar    
  35 C35            2.0529     8.3004     3.5087 C.ar    
  36 C36            2.1009     9.2854     2.5365 C.ar    
  37 C37            1.4724     9.0950     1.3174 C.ar    
  38 C38            0.7989     7.9187     1.0610 C.ar    
  39 Cl39           2.9523    10.7659     2.8477 Cl      
  40 Cl40           1.3177     5.8874     4.4872 Cl      
  41 H41            0.0616    -0.5192     0.7347 H       
  42 H42           -1.6756    -0.4909     0.3488 H       
  43 H43           -0.3810    -1.7066    -1.3907 H       
  44 H44           -1.1440    -0.2418    -2.0562 H       
  45 H45            1.9863     1.8101    -1.9696 H       
  46 H46            0.2585     1.8417    -2.3991 H       
  47 H47            0.6390     2.9475    -0.2172 H       
  48 H48            1.3961     1.4632     0.4084 H       
  49 H49            1.4694    -2.5771    -1.0757 H       
  50 H50            2.8575    -2.3538    -0.1559 H       
  51 H51            3.1049     0.5779    -3.3383 H       
  52 H52            3.5663    -0.1140    -5.6560 H       
  53 H53            1.9940    -1.5984    -6.8339 H       
  54 H54           -0.0393    -2.3916    -5.6939 H       
  55 H55           -0.4965    -1.7064    -3.3734 H       
  56 H56           -2.1660     1.6501     1.5251 H       
  57 H57           -0.5409     1.3287     2.1762 H       
  58 H58           -2.6868     4.0359     0.7250 H       
  59 H59           -2.4206     6.1272    -1.1015 H       
  60 H60           -3.7803     8.0960    -1.6693 H       
  61 H61           -3.2626     9.6095     2.2949 H       
  62 H62           -1.9112     7.6392     2.8771 H       
  63 H63           -5.0648    10.5624     1.8351 H       
  64 H64           -3.5969    11.4243     1.3147 H       
  65 H65           -4.9177    12.6414    -0.3950 H       
  66 H66           -6.3856    11.7795     0.1254 H       
  67 H67           -6.1461    12.7435     2.3974 H       
  68 H68           -4.6782    13.6054     1.8770 H       
  69 H69           -6.6265    14.9753     1.6945 H       
  70 H70            2.5445     8.4554     4.4577 H       
  71 H71            1.5135     9.8674     0.5637 H       
  72 H72            0.3131     7.7701     0.1080 H       
@<TRIPOS>BOND
   1    1    2 1
   2    1    6 1
   3    1   16 1
   4    2    3 1
   5    2   41 1
   6    2   42 1
   7    3    4 1
   8    3   43 1
   9    3   44 1
  10    4    5 1
  11    4    7 1
  12    4   10 1
  13    5    6 1
  14    5   45 1
  15    5   46 1
  16    6   47 1
  17    6   48 1
  18    7    8 2
  19    7    9 am
  20    9   49 1
  21    9   50 1
  22   10   11 ar
  23   10   15 ar
  24   11   12 ar
  25   11   51 1
  26   12   13 ar
  27   12   52 1
  28   13   14 ar
  29   13   53 1
  30   14   15 ar
  31   14   54 1
  32   15   55 1
  33   16   17 1
  34   16   56 1
  35   16   57 1
  36   17   18 2
  37   17   21 1
  38   18   19 1
  39   18   58 1
  40   19   20 2
  41   19   22 1
  42   20   21 1
  43   20   33 1
  44   22   23 ar
  45   22   27 ar
  46   23   24 ar
  47   23   59 1
  48   24   25 ar
  49   24   60 1
  50   25   26 ar
  51   25   28 1
  52   26   27 ar
  53   26   61 1
  54   27   62 1
  55   28   29 1
  56   29   30 1
  57   29   63 1
  58   29   64 1
  59   30   31 1
  60   30   65 1
  61   30   66 1
  62   31   32 1
  63   31   67 1
  64   31   68 1
  65   32   69 1
  66   33   34 ar
  67   33   38 ar
  68   34   35 ar
  69   34   40 1
  70   35   36 ar
  71   35   70 1
  72   36   37 ar
  73   36   39 1
  74   37   38 ar
  75   37   71 1
  76   38   72 1

#	End of record

