#	Name: ASD03092237
#	Creating user name:	WinNT
#	Creation time:	15. 06. 2019 20:32

#	Modifying user name:	WinNT
#	Modification time:	15. 06. 2019 20:32

#	Program:	/corina/corina34_cracker 3.40 0067  02.08.2006

@<TRIPOS>MOLECULE
ASD03092237
  52   54    0    0    0
SMALL
NO_CHARGES


@<TRIPOS>ATOM
   1 N1            -0.3191     1.2744     0.1320 N.pl3   
   2 C2            -0.3801    -0.0677     0.2806 C.2     
   3 N3            -1.6469    -0.4257     0.2201 N.2     
   4 C4            -2.4108     0.6517     0.0357 C.2     
   5 N5            -1.6434     1.7164    -0.0192 N.2     
   6 C6             0.8884     2.1040     0.1346 C.3     
   7 C7             1.3930     2.2745    -1.2996 C.3     
   8 O8             0.4310     3.0095    -2.0588 O.3     
   9 C9             2.7207     3.0347    -1.2861 C.3     
  10 C10            3.2874     3.0967    -2.7059 C.3     
  11 C11            0.7727    -0.9751     0.4767 C.ar    
  12 C12            0.5976    -2.2528     1.0190 C.ar    
  13 C13            1.6999    -3.0663     1.1840 C.ar    
  14 N14            2.9042    -2.6535     0.8384 N.ar    
  15 C15            3.1131    -1.4569     0.3239 C.ar    
  16 C16            2.0666    -0.5811     0.1195 C.ar    
  17 N17           -3.8026     0.6492    -0.0754 N.pl3   
  18 C18           -4.4985    -0.5620    -0.1106 C.ar    
  19 C19           -5.8128    -0.6219     0.3347 C.ar    
  20 C20           -6.5013    -1.8217     0.3001 C.ar    
  21 C21           -5.8820    -2.9633    -0.1783 C.ar    
  22 C22           -4.5689    -2.9072    -0.6239 C.ar    
  23 C23           -3.8786    -1.7059    -0.5959 C.ar    
  24 F24           -7.7793    -1.8790     0.7342 F       
  25 C25            1.5257    -4.4448     1.7675 C.3     
  26 C26            4.5128    -1.0429    -0.0507 C.3     
  27 O27           -3.9619    -4.0290    -1.0930 O.3     
  28 C28           -4.7350    -5.2309    -1.0985 C.3     
  29 H29            0.6565     3.0817     0.5569 H       
  30 H30            1.6591     1.6219     0.7361 H       
  31 H31            1.5404     1.2938    -1.7520 H       
  32 H32            0.2498     3.8942    -1.7130 H       
  33 H33            2.5562     4.0467    -0.9160 H       
  34 H34            3.4274     2.5201    -0.6350 H       
  35 H35            2.5807     3.6113    -3.3570 H       
  36 H36            4.2333     3.6383    -2.6963 H       
  37 H37            3.4519     2.0848    -3.0760 H       
  38 H38           -0.3854    -2.5972     1.3045 H       
  39 H39            2.2450     0.3971    -0.3022 H       
  40 H40           -4.2865     1.4882    -0.1282 H       
  41 H41           -6.2974     0.2681     0.7082 H       
  42 H42           -6.4210    -3.8988    -0.2044 H       
  43 H43           -2.8568    -1.6612    -0.9429 H       
  44 H44            1.3433    -5.1588     0.9644 H       
  45 H45            2.4295    -4.7278     2.3071 H       
  46 H46            0.6783    -4.4447     2.4530 H       
  47 H47            4.7106    -1.3246    -1.0849 H       
  48 H48            4.6135     0.0370     0.0574 H       
  49 H49            5.2269    -1.5418     0.6046 H       
  50 H50           -5.0439    -5.4688    -0.0806 H       
  51 H51           -5.6175    -5.0924    -1.7231 H       
  52 H52           -4.1331    -6.0481    -1.4960 H       
@<TRIPOS>BOND
   1    1    2 1
   2    1    6 1
   3    1    5 1
   4    2    3 2
   5    2   11 1
   6    3    4 1
   7    4    5 2
   8    4   17 1
   9    6    7 1
  10    6   29 1
  11    6   30 1
  12    7    8 1
  13    7    9 1
  14    7   31 1
  15    8   32 1
  16    9   10 1
  17    9   33 1
  18    9   34 1
  19   10   35 1
  20   10   36 1
  21   10   37 1
  22   11   12 ar
  23   11   16 ar
  24   12   13 ar
  25   12   38 1
  26   13   14 ar
  27   13   25 1
  28   14   15 ar
  29   15   16 ar
  30   15   26 1
  31   16   39 1
  32   17   18 1
  33   17   40 1
  34   18   19 ar
  35   18   23 ar
  36   19   20 ar
  37   19   41 1
  38   20   21 ar
  39   20   24 1
  40   21   22 ar
  41   21   42 1
  42   22   23 ar
  43   22   27 1
  44   23   43 1
  45   25   44 1
  46   25   45 1
  47   25   46 1
  48   26   47 1
  49   26   48 1
  50   26   49 1
  51   27   28 1
  52   28   50 1
  53   28   51 1
  54   28   52 1

#	End of record

