#	Name: ASD01028276
#	Creating user name:	WinNT
#	Creation time:	15. 06. 2019 18:56

#	Modifying user name:	WinNT
#	Modification time:	15. 06. 2019 18:56

#	Program:	/corina/corina34_cracker 3.40 0067  02.08.2006

@<TRIPOS>MOLECULE
ASD01028276
  42   46    0    0    0
SMALL
NO_CHARGES


@<TRIPOS>ATOM
   1 C1            -0.0166     1.3760     0.0096 C.ar    
   2 C2             0.0021    -0.0041     0.0020 C.ar    
   3 C3             1.1886     2.0856     0.0019 C.ar    
   4 N4             2.3451     1.4694    -0.0124 N.ar    
   5 C5             2.4264     0.1387    -0.0203 C.ar    
   6 C6             1.2519    -0.6504    -0.0134 C.ar    
   7 C7             3.6832    -0.5160    -0.0353 C.ar    
   8 C8             3.6951    -1.9008    -0.0424 C.ar    
   9 C9             2.4961    -2.6011    -0.0348 C.ar    
  10 N10            1.3369    -1.9849    -0.0204 N.ar    
  11 N11            4.8662     0.2087    -0.0430 N.pl3   
  12 C12            6.1535    -0.4905    -0.0585 C.3     
  13 C13            7.2730     0.5183    -0.0643 C.2     
  14 N14            7.8756     1.0469     1.0232 N.pl3   
  15 C15            8.8302     1.9126     0.5447 C.2     
  16 N16            8.7607     1.8671    -0.7757 N.2     
  17 N17            7.8411     1.0365    -1.1247 N.2     
  18 N18            7.7090     0.8791     2.3993 N.2     
  19 C19            8.4616     1.5458     3.2485 C.2     
  20 C20            9.4506     2.4423     2.7872 C.2     
  21 C21            9.6354     2.6253     1.4537 C.2     
  22 C22            8.2691     1.3543     4.7030 C.2     
  23 C23            7.3641     0.5323     5.3145 C.2     
  24 N24            7.5482     0.6808     6.6283 N.2     
  25 N25            8.4930     1.5282     6.8321 N.2     
  26 N26            8.9633     1.9583     5.7138 N.pl3   
  27 O27           -1.2006     2.0423     0.0188 O.3     
  28 C28           -1.1415     3.4701     0.0263 C.3     
  29 H29           -0.9166    -0.5719     0.0081 H       
  30 H30            1.1657     3.1653     0.0075 H       
  31 H31            4.6340    -2.4344    -0.0541 H       
  32 H32            2.5176    -3.6808    -0.0405 H       
  33 H33            4.8409     1.1784    -0.0382 H       
  34 H34            6.2359    -1.1196     0.8278 H       
  35 H35            6.2191    -1.1112    -0.9520 H       
  36 H36           10.0608     2.9830     3.4954 H       
  37 H37           10.3901     3.3097     1.0953 H       
  38 H38            6.6430    -0.1098     4.8306 H       
  39 H39            9.6801     2.6030     5.6072 H       
  40 H40           -0.6088     3.8070     0.9156 H       
  41 H41           -0.6173     3.8167    -0.8643 H       
  42 H42           -2.1532     3.8755     0.0333 H       
@<TRIPOS>BOND
   1    1    2 ar
   2    1    3 ar
   3    1   27 1
   4    2    6 ar
   5    2   29 1
   6    3    4 ar
   7    3   30 1
   8    4    5 ar
   9    5    6 ar
  10    5    7 ar
  11    6   10 ar
  12    7    8 ar
  13    7   11 1
  14    8    9 ar
  15    8   31 1
  16    9   10 ar
  17    9   32 1
  18   11   12 1
  19   11   33 1
  20   12   13 1
  21   12   34 1
  22   12   35 1
  23   13   14 1
  24   13   17 2
  25   14   15 1
  26   14   18 1
  27   15   16 2
  28   15   21 1
  29   16   17 1
  30   18   19 2
  31   19   20 1
  32   19   22 1
  33   20   21 2
  34   20   36 1
  35   21   37 1
  36   22   23 2
  37   22   26 1
  38   23   24 1
  39   23   38 1
  40   24   25 2
  41   25   26 1
  42   26   39 1
  43   27   28 1
  44   28   40 1
  45   28   41 1
  46   28   42 1

#	End of record

