#	Name: ASD08178520
#	Creating user name:	WinNT
#	Creation time:	15. 06. 2019 21:19

#	Modifying user name:	WinNT
#	Modification time:	15. 06. 2019 21:19

#	Program:	/corina/corina34_cracker 3.40 0067  02.08.2006

@<TRIPOS>MOLECULE
ASD08178520
  28   29    0    0    0
SMALL
NO_CHARGES


@<TRIPOS>ATOM
   1 C1            -0.0156     1.2965     0.0092 C.2     
   2 N2             0.0021    -0.0041     0.0020 N.2     
   3 O3             1.2633     1.7207    -0.0008 O.3     
   4 C4             2.0286     0.6137    -0.0140 C.2     
   5 N5             1.2201    -0.4179    -0.0118 N.2     
   6 C6            -4.5337     4.5077     2.9341 C.2     
   7 N7            -5.7683     4.0982     2.9389 N.2     
   8 N8            -6.5584     5.1134     2.9536 N.2     
   9 C9            -5.8487     6.2153     2.9587 C.2     
  10 O10           -4.5520     5.8550     2.9465 O.3     
  11 N11           -6.3405     7.5073     2.9734 N.pl3   
  12 N12            3.4105     0.5724    -0.0278 N.pl3   
  13 C13           -1.2434     2.1702     0.0200 C.3     
  14 C14           -1.6514     2.4585     1.4661 C.3     
  15 C15           -2.8979     3.3456     1.4772 C.3     
  16 C16           -3.3059     3.6340     2.9233 C.3     
  17 H17           -7.2981     7.6616     2.9815 H       
  18 H18           -5.7280     8.2594     2.9757 H       
  19 H19            3.9204     1.3975    -0.0286 H       
  20 H20            3.8701    -0.2818    -0.0368 H       
  21 H21           -1.0261     3.1086    -0.4902 H       
  22 H22           -2.0581     1.6583    -0.4922 H       
  23 H23           -1.8687     1.5202     1.9764 H       
  24 H24           -0.8367     2.9704     1.9783 H       
  25 H25           -2.6806     4.2840     0.9669 H       
  26 H26           -3.7126     2.8338     0.9650 H       
  27 H27           -2.4912     4.1458     3.4355 H       
  28 H28           -3.5232     2.6956     3.4335 H       
@<TRIPOS>BOND
   1    1    2 2
   2    1    3 1
   3    1   13 1
   4    2    5 1
   5    3    4 1
   6    4    5 2
   7    4   12 1
   8    6    7 2
   9    6   10 1
  10    6   16 1
  11    7    8 1
  12    8    9 2
  13    9   10 1
  14    9   11 1
  15   11   17 1
  16   11   18 1
  17   12   19 1
  18   12   20 1
  19   13   14 1
  20   13   21 1
  21   13   22 1
  22   14   15 1
  23   14   23 1
  24   14   24 1
  25   15   16 1
  26   15   25 1
  27   15   26 1
  28   16   27 1
  29   16   28 1

#	End of record

