#	Name: ASD07480039
#	Creating user name:	WinNT
#	Creation time:	15. 06. 2019 21:11

#	Modifying user name:	WinNT
#	Modification time:	15. 06. 2019 21:11

#	Program:	/corina/corina34_cracker 3.40 0067  02.08.2006

@<TRIPOS>MOLECULE
ASD07480039
  40   43    0    0    0
SMALL
NO_CHARGES


@<TRIPOS>ATOM
   1 C1            -0.0170     1.4053     0.0098 C.2     
   2 C2             0.0021    -0.0041     0.0020 C.2     
   3 N3             1.1573    -0.6478    -0.0125 N.2     
   4 C4             2.3106     0.0213    -0.0199 C.2     
   5 N5             2.3290     1.3868    -0.0127 N.pl3   
   6 C6             1.1537     2.0831     0.0022 C.2     
   7 C7             3.6540    -0.4021    -0.0354 C.2     
   8 C8             4.4489     0.7601    -0.0371 C.2     
   9 N9             3.6647     1.8041    -0.0237 N.2     
  10 N10           -1.1844    -0.7121     0.0100 N.pl3   
  11 C11           -1.3080    -2.1772     0.0093 C.3     
  12 C12           -0.6704    -2.7459     1.2506 C.ar    
  13 C13            0.0715    -3.9097     1.1750 C.ar    
  14 C14            0.6567    -4.4330     2.3132 C.ar    
  15 C15            0.5005    -3.7928     3.5277 C.ar    
  16 C16           -0.2421    -2.6265     3.6046 C.ar    
  17 C17           -0.8229    -2.1005     2.4633 C.ar    
  18 C18            4.1324    -1.7862    -0.0475 C.2     
  19 N19            5.4556    -2.0417    -0.0620 N.am    
  20 C20           -2.5361    -0.1237     0.0271 C.3     
  21 C21           -3.4515    -1.2153    -0.5812 C.3     
  22 C22           -2.8149    -2.5098    -0.0063 C.3     
  23 F23           -0.3955    -1.9997     4.7916 F       
  24 O24            3.3348    -2.7058    -0.0446 O.2     
  25 H25           -0.9563     1.9383     0.0171 H       
  26 H26            1.1592     3.1630     0.0083 H       
  27 H27            5.5286     0.7841    -0.0476 H       
  28 H28           -0.8259    -2.5894    -0.8771 H       
  29 H29            0.1938    -4.4110     0.2262 H       
  30 H30            1.2359    -5.3426     2.2530 H       
  31 H31            0.9572    -4.2021     4.4168 H       
  32 H32           -1.4023    -1.1909     2.5221 H       
  33 H33            6.0911    -1.3089    -0.0643 H       
  34 H34            5.7724    -2.9585    -0.0700 H       
  35 H35           -2.8398     0.0994     1.0498 H       
  36 H36           -2.5646     0.7788    -0.5835 H       
  37 H37           -4.4791    -1.1001    -0.2365 H       
  38 H38           -3.4027    -1.2039    -1.6701 H       
  39 H39           -3.0157    -3.3605    -0.6576 H       
  40 H40           -3.1771    -2.7020     1.0037 H       
@<TRIPOS>BOND
   1    1    2 1
   2    1    6 2
   3    1   25 1
   4    2    3 2
   5    2   10 1
   6    3    4 1
   7    4    5 1
   8    4    7 2
   9    5    6 1
  10    5    9 1
  11    6   26 1
  12    7    8 1
  13    7   18 1
  14    8    9 2
  15    8   27 1
  16   10   20 1
  17   10   11 1
  18   11   12 1
  19   11   22 1
  20   11   28 1
  21   12   13 ar
  22   12   17 ar
  23   13   14 ar
  24   13   29 1
  25   14   15 ar
  26   14   30 1
  27   15   16 ar
  28   15   31 1
  29   16   17 ar
  30   16   23 1
  31   17   32 1
  32   18   24 2
  33   18   19 am
  34   19   33 1
  35   19   34 1
  36   20   21 1
  37   20   35 1
  38   20   36 1
  39   21   22 1
  40   21   37 1
  41   21   38 1
  42   22   39 1
  43   22   40 1

#	End of record

