#	Name: ASD01870196
#	Creating user name:	WinNT
#	Creation time:	15. 06. 2019 19:38

#	Modifying user name:	WinNT
#	Modification time:	15. 06. 2019 19:38

#	Program:	/corina/corina34_cracker 3.40 0067  02.08.2006

@<TRIPOS>MOLECULE
ASD01870196
  55   59    0    0    0
SMALL
NO_CHARGES


@<TRIPOS>ATOM
   1 C1             0.1965     1.2529     1.2439 C.ar    
   2 C2             0.1658    -0.1085     0.9497 C.ar    
   3 C3             1.2550    -0.7382     0.4284 C.ar    
   4 C4             2.4291    -0.0089     0.1814 C.ar    
   5 C5             2.4609     1.3782     0.4804 C.ar    
   6 C6             1.3163     1.9930     1.0183 C.ar    
   7 C7             3.5718    -0.6284    -0.3568 C.ar    
   8 C8             4.6958     0.0952    -0.5882 C.ar    
   9 C9             4.7432     1.4726    -0.2963 C.ar    
  10 C10            3.6304     2.1057     0.2340 C.ar    
  11 C11            5.8177     2.4734    -0.4478 C.2     
  12 N12            5.3952     3.6790    -0.0301 N.am    
  13 C13            4.0064     3.5532     0.4269 C.3     
  14 C14            6.1876     4.9112    -0.0312 C.3     
  15 C15            5.2662     6.1098    -0.2665 C.3     
  16 C16            4.2212     6.1764     0.8490 C.3     
  17 C17            4.9250     6.3314     2.1986 C.3     
  18 C18            5.8463     5.1328     2.4339 C.3     
  19 C19            6.8914     5.0661     1.3184 C.3     
  20 C20            3.5474    -2.1008    -0.6769 C.3     
  21 C21            2.9646    -2.3065    -2.0514 C.ar    
  22 C22            3.7837    -2.3168    -3.1642 C.ar    
  23 N23            3.2809    -2.4962    -4.3702 N.ar    
  24 C24            1.9886    -2.6720    -4.5636 C.ar    
  25 C25            1.1081    -2.6743    -3.4980 C.ar    
  26 C26            1.6003    -2.4935    -2.2147 C.ar    
  27 O27            6.9269     2.2403    -0.8874 O.2     
  28 O28            4.6088     5.9651    -1.5270 O.3     
  29 C29            1.4653    -2.8724    -5.9625 C.3     
  30 F30            2.5392    -2.9457    -6.8561 F       
  31 F31            0.7293    -4.0608    -6.0194 F       
  32 F32            0.6415    -1.7966    -6.3108 F       
  33 H33           -0.6825     1.7289     1.6529 H       
  34 H34           -0.7353    -0.6732     1.1382 H       
  35 H35            1.2160    -1.7944     0.2062 H       
  36 H36            1.3255     3.0477     1.2506 H       
  37 H37            5.5667    -0.3917    -1.0016 H       
  38 H38            3.3560     4.1923    -0.1703 H       
  39 H39            3.9327     3.8225     1.4805 H       
  40 H40            6.9321     4.8637    -0.8259 H       
  41 H41            5.8558     7.0266    -0.2673 H       
  42 H42            3.5648     7.0304     0.6814 H       
  43 H43            3.6316     5.2596     0.8498 H       
  44 H44            5.5145     7.2482     2.1978 H       
  45 H45            4.1805     6.3789     2.9933 H       
  46 H46            6.3478     5.2431     3.3954 H       
  47 H47            5.2568     4.2160     2.4347 H       
  48 H48            7.5478     4.2122     1.4860 H       
  49 H49            7.4809     5.9829     1.3176 H       
  50 H50            4.5631    -2.4953    -0.6502 H       
  51 H51            2.9355    -2.6225     0.0590 H       
  52 H52            4.8478    -2.1760    -3.0451 H       
  53 H53            0.0505    -2.8184    -3.6628 H       
  54 H54            0.9360    -2.4906    -1.3632 H       
  55 H55            4.0073     6.6909    -1.7426 H       
@<TRIPOS>BOND
   1    1    2 ar
   2    1    6 ar
   3    1   33 1
   4    2    3 ar
   5    2   34 1
   6    3    4 ar
   7    3   35 1
   8    4    5 ar
   9    4    7 ar
  10    5    6 ar
  11    5   10 ar
  12    6   36 1
  13    7    8 ar
  14    7   20 1
  15    8    9 ar
  16    8   37 1
  17    9   10 ar
  18    9   11 1
  19   10   13 1
  20   11   12 am
  21   11   27 2
  22   12   13 1
  23   12   14 1
  24   13   38 1
  25   13   39 1
  26   14   15 1
  27   14   19 1
  28   14   40 1
  29   15   16 1
  30   15   28 1
  31   15   41 1
  32   16   17 1
  33   16   42 1
  34   16   43 1
  35   17   18 1
  36   17   44 1
  37   17   45 1
  38   18   19 1
  39   18   46 1
  40   18   47 1
  41   19   48 1
  42   19   49 1
  43   20   21 1
  44   20   50 1
  45   20   51 1
  46   21   22 ar
  47   21   26 ar
  48   22   23 ar
  49   22   52 1
  50   23   24 ar
  51   24   25 ar
  52   24   29 1
  53   25   26 ar
  54   25   53 1
  55   26   54 1
  56   28   55 1
  57   29   30 1
  58   29   31 1
  59   29   32 1

#	End of record

