#	Name: ASD03330737
#	Creating user name:	WinNT
#	Creation time:	15. 06. 2019 20:37

#	Modifying user name:	WinNT
#	Modification time:	15. 06. 2019 20:37

#	Program:	/corina/corina34_cracker 3.40 0067  02.08.2006

@<TRIPOS>MOLECULE
ASD03330737
  72   75    0    0    0
SMALL
NO_CHARGES


@<TRIPOS>ATOM
   1 C1             0.0139     2.0451     1.8170 C.2     
   2 N2            -0.1325     0.7532     2.2152 N.pl3   
   3 C3             1.3174     2.2082     1.4583 C.2     
   4 N4             1.9421     1.0214     1.6233 N.2     
   5 C5             1.0782     0.1408     2.0718 C.2     
   6 C6             1.3685    -1.2780     2.3711 C.ar    
   7 C7             1.9359     3.4555     0.9758 C.2     
   8 O8             1.2657     4.4647     0.8684 O.2     
   9 C9             3.8593     4.7182     0.1737 C.3     
  10 N10            3.2444     3.4781     0.6535 N.am    
  11 C11            3.6360     4.8480    -1.3343 C.3     
  12 C12            2.1375     4.7811    -1.6357 C.3     
  13 C13            4.1944     6.1875    -1.8191 C.3     
  14 C14            5.3382     4.6899     0.4620 C.2     
  15 O15            5.8770     3.6464     0.7650 O.2     
  16 C16           -1.3720     0.1541     2.7174 C.3     
  17 C17           -2.5275     0.5361     1.7871 C.3     
  18 C18           -3.1262     1.8678     2.2284 C.3     
  19 N19           -2.0971     2.7515     2.7796 N.3     
  20 C20           -1.0793     3.0809     1.7707 C.3     
  21 C21            4.3530     3.7053    -2.0562 C.3     
  22 C22            0.9235    -1.8475     3.5647 C.ar    
  23 C23            2.0847    -2.0555     1.4573 C.ar    
  24 C24            2.3523    -3.3810     1.7439 C.ar    
  25 C25            1.9119    -3.9367     2.9323 C.ar    
  26 C26            1.1971    -3.1711     3.8388 C.ar    
  27 F27            2.5139    -1.5134     0.2966 F       
  28 Cl28           2.2511    -5.6022     3.2856 Cl      
  29 C29           -2.6952     3.9699     3.3413 C.3     
  30 C30           -3.6177     4.6131     2.3022 C.3     
  31 C31           -4.2845     5.8474     2.9136 C.3     
  32 N32           -5.0544     5.4523     4.1000 N.3     
  33 C33           -4.1823     4.8753     5.1310 C.3     
  34 C34           -3.5124     3.6120     4.5857 C.3     
  35 N35            6.0620     5.8240     0.3830 N.am    
  36 C36            7.5117     5.7837     0.5906 C.3     
  37 H37            3.4062     5.5690     0.6826 H       
  38 H38            3.7789     2.6732     0.7391 H       
  39 H39            1.6268     5.5952    -1.1214 H       
  40 H40            1.9785     4.8736    -2.7100 H       
  41 H41            1.7397     3.8268    -1.2903 H       
  42 H42            5.2249     6.2954    -1.4807 H       
  43 H43            4.1643     6.2209    -2.9082 H       
  44 H44            3.5918     7.0004    -1.4139 H       
  45 H45           -1.2681    -0.9307     2.7428 H       
  46 H46           -1.5751     0.5252     3.7219 H       
  47 H47           -2.1563     0.6262     0.7662 H       
  48 H48           -3.2949    -0.2369     1.8259 H       
  49 H49           -3.5917     2.3526     1.3702 H       
  50 H50           -3.8849     1.6842     2.9892 H       
  51 H51           -0.6593     4.0639     1.9842 H       
  52 H52           -1.5354     3.0854     0.7808 H       
  53 H53            3.9552     2.7511    -1.7109 H       
  54 H54            4.1939     3.7978    -3.1306 H       
  55 H55            5.4205     3.7530    -1.8416 H       
  56 H56            0.3660    -1.2526     4.2730 H       
  57 H57            2.9057    -3.9839     1.0391 H       
  58 H58            0.8563    -3.6110     4.7644 H       
  59 H59           -1.9062     4.6716     3.6120 H       
  60 H60           -3.0337     4.9091     1.4307 H       
  61 H61           -4.3829     3.8972     2.0021 H       
  62 H62           -3.5194     6.5688     3.2008 H       
  63 H63           -4.9530     6.2996     2.1809 H       
  64 H64           -5.5802     6.2318     4.4660 H       
  65 H65           -3.4177     5.6012     5.4078 H       
  66 H66           -4.7765     4.6214     6.0088 H       
  67 H67           -4.2759     2.8803     4.3216 H       
  68 H68           -2.8532     3.1927     5.3458 H       
  69 H69            5.6231     6.6670     0.1888 H       
  70 H70            7.9214     6.7886     0.4885 H       
  71 H71            7.7253     5.4040     1.5898 H       
  72 H72            7.9670     5.1285    -0.1520 H       
@<TRIPOS>BOND
   1    1    2 1
   2    1    3 2
   3    1   20 1
   4    2   16 1
   5    2    5 1
   6    3    4 1
   7    3    7 1
   8    4    5 2
   9    5    6 1
  10    6   23 ar
  11    6   22 ar
  12    7    8 2
  13    7   10 am
  14    9   10 1
  15    9   11 1
  16    9   14 1
  17    9   37 1
  18   10   38 1
  19   11   12 1
  20   11   13 1
  21   11   21 1
  22   12   39 1
  23   12   40 1
  24   12   41 1
  25   13   42 1
  26   13   43 1
  27   13   44 1
  28   14   15 2
  29   14   35 am
  30   16   17 1
  31   16   45 1
  32   16   46 1
  33   17   18 1
  34   17   47 1
  35   17   48 1
  36   18   19 1
  37   18   49 1
  38   18   50 1
  39   19   20 1
  40   19   29 1
  41   20   51 1
  42   20   52 1
  43   21   53 1
  44   21   54 1
  45   21   55 1
  46   22   26 ar
  47   22   56 1
  48   23   24 ar
  49   23   27 1
  50   24   25 ar
  51   24   57 1
  52   25   26 ar
  53   25   28 1
  54   26   58 1
  55   29   30 1
  56   29   34 1
  57   29   59 1
  58   30   31 1
  59   30   60 1
  60   30   61 1
  61   31   32 1
  62   31   62 1
  63   31   63 1
  64   32   33 1
  65   32   64 1
  66   33   34 1
  67   33   65 1
  68   33   66 1
  69   34   67 1
  70   34   68 1
  71   35   36 1
  72   35   69 1
  73   36   70 1
  74   36   71 1
  75   36   72 1

#	End of record

