#	Name: ASD01148492
#	Creating user name:	WinNT
#	Creation time:	15. 06. 2019 19:02

#	Modifying user name:	WinNT
#	Modification time:	15. 06. 2019 19:02

#	Program:	/corina/corina34_cracker 3.40 0067  02.08.2006

@<TRIPOS>MOLECULE
ASD01148492
  61   65    0    0    0
SMALL
NO_CHARGES


@<TRIPOS>ATOM
   1 C1             0.0551     0.5125    -0.5861 C.ar    
   2 C2             0.3528    -0.8371    -0.6153 C.ar    
   3 C3             1.6617    -1.2593    -0.4761 C.ar    
   4 C4             2.6729    -0.3320    -0.3080 C.ar    
   5 C5             2.3754     1.0177    -0.2797 C.ar    
   6 C6             1.0663     1.4399    -0.4176 C.ar    
   7 C7             3.4778     2.0286    -0.0961 C.3     
   8 O8             4.7113     1.5581    -0.6761 O.3     
   9 C9             3.2039     3.3039    -0.9284 C.3     
  10 C10            3.9603     3.0276    -2.2139 C.2     
  11 N11            4.7741     2.0464    -2.0016 N.2     
  12 C12            3.7951     3.7523    -3.4855 C.ar    
  13 C13            4.5920     3.3809    -4.6522 C.ar    
  14 C14            2.8770     4.7888    -3.5846 C.ar    
  15 C15            2.7008     5.4861    -4.7663 C.ar    
  16 C16            3.4347     5.1792    -5.9044 C.ar    
  17 C17            4.4121     4.0940    -5.8610 C.ar    
  18 C18            3.2250     5.9390    -7.1491 C.2     
  19 O19            2.7122     5.4005    -8.1109 O.2     
  20 N20            3.6018     7.2310    -7.2216 N.am    
  21 C21            5.1739     3.7494    -6.9844 C.ar    
  22 C22            5.5257     2.3381    -4.5994 C.ar    
  23 C23            3.6636     2.3691     1.3839 C.3     
  24 F24            3.9788     1.2058     2.0941 F       
  25 F25            4.7024     3.2959     1.5224 F       
  26 F26            2.4794     2.9171     1.8886 F       
  27 C27            3.4806     7.9595    -8.4868 C.3     
  28 C28            2.1246     8.6127    -8.5625 C.ar    
  29 N29            1.0921     7.9216    -9.0039 N.ar    
  30 C30            4.0901     7.8528    -6.1301 C.2     
  31 C31           -0.1127     8.4516    -9.0874 C.ar    
  32 C32           -0.3357     9.7625    -8.7116 C.ar    
  33 C33            0.7261    10.5209    -8.2422 C.ar    
  34 C34            1.9765     9.9276    -8.1630 C.ar    
  35 O35            4.1075     7.2777    -5.0603 O.2     
  36 O36            4.5584     9.1111    -6.2254 O.3     
  37 C37            5.0691     9.7183    -5.0093 C.3     
  38 C38            6.2481     2.0243    -5.7122 C.ar    
  39 C39            6.0746     2.7294    -6.9002 C.ar    
  40 H40           -0.9669     0.8427    -0.6994 H       
  41 H41           -0.4373    -1.5616    -0.7466 H       
  42 H42            1.8941    -2.3138    -0.4982 H       
  43 H43            3.6955    -0.6619    -0.1985 H       
  44 H44            0.8339     2.4943    -0.3958 H       
  45 H45            2.1375     3.4169    -1.1236 H       
  46 H46            3.6022     4.1861    -0.4271 H       
  47 H47            2.2872     5.0564    -2.7203 H       
  48 H48            1.9765     6.2862    -4.8046 H       
  49 H49            5.0485     4.2883    -7.9120 H       
  50 H50            5.6727     1.7864    -3.6827 H       
  51 H51            4.2557     8.7239    -8.5416 H       
  52 H52            3.5961     7.2647    -9.3187 H       
  53 H53           -0.9343     7.8543    -9.4540 H       
  54 H54           -1.3245    10.1911    -8.7830 H       
  55 H55            0.5815    11.5482    -7.9418 H       
  56 H56            2.8259    10.4884    -7.8017 H       
  57 H57            5.4140    10.7295    -5.2252 H       
  58 H58            4.2767     9.7565    -4.2618 H       
  59 H59            5.8999     9.1246    -4.6280 H       
  60 H60            6.9678     1.2202    -5.6705 H       
  61 H61            6.6614     2.4642    -7.7672 H       
@<TRIPOS>BOND
   1    1    2 ar
   2    1    6 ar
   3    1   40 1
   4    2    3 ar
   5    2   41 1
   6    3    4 ar
   7    3   42 1
   8    4    5 ar
   9    4   43 1
  10    5    6 ar
  11    5    7 1
  12    6   44 1
  13    7    8 1
  14    7    9 1
  15    7   23 1
  16    8   11 1
  17    9   10 1
  18    9   45 1
  19    9   46 1
  20   10   11 2
  21   10   12 1
  22   12   13 ar
  23   12   14 ar
  24   13   22 ar
  25   13   17 ar
  26   14   15 ar
  27   14   47 1
  28   15   16 ar
  29   15   48 1
  30   16   17 ar
  31   16   18 1
  32   17   21 ar
  33   18   19 2
  34   18   20 am
  35   20   27 1
  36   20   30 am
  37   21   39 ar
  38   21   49 1
  39   22   38 ar
  40   22   50 1
  41   23   24 1
  42   23   25 1
  43   23   26 1
  44   27   28 1
  45   27   51 1
  46   27   52 1
  47   28   29 ar
  48   28   34 ar
  49   29   31 ar
  50   30   35 2
  51   30   36 1
  52   31   32 ar
  53   31   53 1
  54   32   33 ar
  55   32   54 1
  56   33   34 ar
  57   33   55 1
  58   34   56 1
  59   36   37 1
  60   37   57 1
  61   37   58 1
  62   37   59 1
  63   38   39 ar
  64   38   60 1
  65   39   61 1

#	End of record

