#	Name: ASD01141038
#	Creating user name:	WinNT
#	Creation time:	15. 06. 2019 19:01

#	Modifying user name:	WinNT
#	Modification time:	15. 06. 2019 19:01

#	Program:	/corina/corina34_cracker 3.40 0067  02.08.2006

@<TRIPOS>MOLECULE
ASD01141038
  60   60    0    0    0
SMALL
NO_CHARGES


@<TRIPOS>ATOM
   1 C1             0.4648     3.4746    -0.0905 C.ar    
   2 C2             1.0874     2.4046    -0.7231 C.ar    
   3 C3             1.2201     4.3679     0.6607 C.ar    
   4 O4            -0.8790     3.6503    -0.2109 O.3     
   5 C5             2.4581     2.2326    -0.6024 C.ar    
   6 C6             2.5903     4.1883     0.7761 C.ar    
   7 O7             0.6162     5.4163     1.2810 O.3     
   8 C8            -1.6562     3.0531     0.7059 C.2     
   9 C9             3.2052     3.1228     0.1459 C.ar    
  10 C10           -3.1541     3.2029     0.6367 C.3     
  11 O11           -1.1532     2.3933     1.5895 O.2     
  12 N12           -3.4893     4.5131     0.0633 N.3     
  13 C13           -3.7371     2.0963    -0.2445 C.3     
  14 C14            1.4543     6.2938     2.0359 C.3     
  15 O15            0.3533     1.5278    -1.4587 O.3     
  16 C16            1.0594     0.4523    -2.0805 C.3     
  17 C17           -3.0801     4.5916    -1.3454 C.3     
  18 C18           -4.9218     4.8021     0.2123 C.3     
  19 C19           -5.1451     5.6368     1.4750 C.3     
  20 C20           -3.1931     6.0385    -1.8295 C.3     
  21 O21           -4.3951     6.8497     1.3831 O.3     
  22 C22           -4.4523     7.6590     2.5594 C.3     
  23 O23           -2.2414     6.8484    -1.1362 O.3     
  24 C24           -2.1857     8.2008    -1.5945 C.3     
  25 C25            4.6943     2.9312     0.2749 C.3     
  26 C26           -3.0478     4.1020     2.9653 C.3     
  27 C27           -3.7428     3.0967     2.0449 C.3     
  28 H28            2.9425     1.4016    -1.0935 H       
  29 H29            3.1777     4.8818     1.3595 H       
  30 H30           -3.4885     1.1241     0.1809 H       
  31 H31           -4.8206     2.2046    -0.2945 H       
  32 H32           -3.3177     2.1719    -1.2478 H       
  33 H33            0.8480     7.0847     2.4774 H       
  34 H34            1.9500     5.7314     2.8271 H       
  35 H35            2.2041     6.7345     1.3788 H       
  36 H36            1.8061     0.8553    -2.7647 H       
  37 H37            1.5532    -0.1480    -1.3164 H       
  38 H38            0.3575    -0.1708    -2.6347 H       
  39 H39           -2.0480     4.2552    -1.4432 H       
  40 H40           -3.7283     3.9552    -1.9479 H       
  41 H41           -5.2728     5.3578    -0.6573 H       
  42 H42           -5.4748     3.8663     0.2929 H       
  43 H43           -6.2051     5.8715     1.5727 H       
  44 H44           -4.8163     5.0715     2.3470 H       
  45 H45           -2.9939     6.0800    -2.9003 H       
  46 H46           -4.1986     6.4102    -1.6323 H       
  47 H47           -3.9754     7.1325     3.3862 H       
  48 H48           -3.9317     8.5995     2.3790 H       
  49 H49           -5.4933     7.8622     2.8104 H       
  50 H50           -1.5051     8.7709    -0.9622 H       
  51 H51           -1.8282     8.2211    -2.6240 H       
  52 H52           -3.1813     8.6419    -1.5468 H       
  53 H53            5.2004     3.4643    -0.5299 H       
  54 H54            5.0290     3.3217     1.2360 H       
  55 H55            4.9308     1.8690     0.2121 H       
  56 H56           -3.0352     5.0824     2.4890 H       
  57 H57           -3.5883     4.1639     3.9099 H       
  58 H58           -2.0248     3.7760     3.1529 H       
  59 H59           -4.8104     3.3140     2.0098 H       
  60 H60           -3.5899     2.0877     2.4276 H       
@<TRIPOS>BOND
   1    1    2 ar
   2    1    3 ar
   3    1    4 1
   4    2    5 ar
   5    2   15 1
   6    3    6 ar
   7    3    7 1
   8    4    8 1
   9    5    9 ar
  10    5   28 1
  11    6    9 ar
  12    6   29 1
  13    7   14 1
  14    8   10 1
  15    8   11 2
  16    9   25 1
  17   10   13 1
  18   10   27 1
  19   10   12 1
  20   12   17 1
  21   12   18 1
  22   13   30 1
  23   13   31 1
  24   13   32 1
  25   14   33 1
  26   14   34 1
  27   14   35 1
  28   15   16 1
  29   16   36 1
  30   16   37 1
  31   16   38 1
  32   17   20 1
  33   17   39 1
  34   17   40 1
  35   18   19 1
  36   18   41 1
  37   18   42 1
  38   19   21 1
  39   19   43 1
  40   19   44 1
  41   20   23 1
  42   20   45 1
  43   20   46 1
  44   21   22 1
  45   22   47 1
  46   22   48 1
  47   22   49 1
  48   23   24 1
  49   24   50 1
  50   24   51 1
  51   24   52 1
  52   25   53 1
  53   25   54 1
  54   25   55 1
  55   26   27 1
  56   26   56 1
  57   26   57 1
  58   26   58 1
  59   27   59 1
  60   27   60 1

#	End of record

