#	Name: ASD01915361
#	Creating user name:	WinNT
#	Creation time:	15. 06. 2019 20:05

#	Modifying user name:	WinNT
#	Modification time:	15. 06. 2019 20:05

#	Program:	/corina/corina34_cracker 3.40 0067  02.08.2006

@<TRIPOS>MOLECULE
ASD01915361
  43   46    0    0    0
SMALL
NO_CHARGES


@<TRIPOS>ATOM
   1 C1            -0.0167     1.3795     0.0096 C.ar    
   2 C2             0.0021    -0.0041     0.0020 C.ar    
   3 C3             1.2320    -0.6497    -0.0132 C.ar    
   4 C4             2.3901     0.1036    -0.0202 C.ar    
   5 N5             2.3390     1.4222    -0.0126 N.ar    
   6 C6             1.1874     2.0721     0.0018 C.ar    
   7 O7             1.1819     3.4290     0.0092 O.3     
   8 C8             2.4525     4.0830     0.0006 C.3     
   9 C9             2.2490     5.5762     0.0105 C.2     
  10 C10            1.0148     6.2397     0.0315 C.2     
  11 N11            3.1966     6.4846     0.0068 N.2     
  12 C12            1.3272     7.5694     0.0319 C.2     
  13 C13            0.4818     8.7728     0.0535 C.2     
  14 N14            2.7018     7.6600     0.0274 N.pl3   
  15 C15            3.3771     8.9629     0.0616 C.3     
  16 C16            2.4964    10.0050    -0.6263 C.3     
  17 N17            1.1093     9.9527    -0.1710 N.am    
  18 O18           -0.7153     8.7122     0.2610 O.2     
  19 C19            3.6171     9.3760     1.5151 C.3     
  20 Cl20           1.3129    -2.3838    -0.0227 Cl      
  21 C21            0.4141    11.1485     0.0420 C.ar    
  22 C22            0.4459    11.7593     1.2888 C.ar    
  23 C23           -0.2404    12.9397     1.4973 C.ar    
  24 C24           -0.9604    13.5154     0.4666 C.ar    
  25 C25           -0.9959    12.9111    -0.7787 C.ar    
  26 C26           -0.3050    11.7303    -0.9955 C.ar    
  27 F27           -0.3342    11.1426    -2.2116 F       
  28 F28           -1.7002    13.4759    -1.7838 F       
  29 H29           -0.9552     1.9140     0.0170 H       
  30 H30           -0.9183    -0.5690     0.0081 H       
  31 H31            3.3492    -0.3929    -0.0317 H       
  32 H32            3.0191     3.7876     0.8836 H       
  33 H33            3.0021     3.7972    -0.8962 H       
  34 H34            0.0303     5.7960     0.0446 H       
  35 H35            4.3317     8.8918    -0.4597 H       
  36 H36            2.8976    10.9972    -0.4197 H       
  37 H37            2.5224     9.8335    -1.7024 H       
  38 H38            4.2421     8.6302     2.0063 H       
  39 H39            4.1186    10.3434     1.5397 H       
  40 H40            2.6617     9.4486     2.0347 H       
  41 H41            1.0070    11.3111     2.0955 H       
  42 H42           -0.2149    13.4139     2.4673 H       
  43 H43           -1.4964    14.4380     0.6334 H       
@<TRIPOS>BOND
   1    1    2 ar
   2    1    6 ar
   3    1   29 1
   4    2    3 ar
   5    2   30 1
   6    3    4 ar
   7    3   20 1
   8    4    5 ar
   9    4   31 1
  10    5    6 ar
  11    6    7 1
  12    7    8 1
  13    8    9 1
  14    8   32 1
  15    8   33 1
  16    9   11 2
  17    9   10 1
  18   10   12 2
  19   10   34 1
  20   11   14 1
  21   12   14 1
  22   12   13 1
  23   13   17 am
  24   13   18 2
  25   14   15 1
  26   15   16 1
  27   15   19 1
  28   15   35 1
  29   16   17 1
  30   16   36 1
  31   16   37 1
  32   17   21 1
  33   19   38 1
  34   19   39 1
  35   19   40 1
  36   21   22 ar
  37   21   26 ar
  38   22   23 ar
  39   22   41 1
  40   23   24 ar
  41   23   42 1
  42   24   25 ar
  43   24   43 1
  44   25   26 ar
  45   25   28 1
  46   26   27 1

#	End of record

