#	Name: ASD04170021
#	Creating user name:	WinNT
#	Creation time:	15. 06. 2019 20:48

#	Modifying user name:	WinNT
#	Modification time:	15. 06. 2019 20:48

#	Program:	/corina/corina34_cracker 3.40 0067  02.08.2006

@<TRIPOS>MOLECULE
ASD04170021
  35   37    0    0    0
SMALL
NO_CHARGES


@<TRIPOS>ATOM
   1 O1             0.0021    -0.0041     0.0020 O.2     
   2 C2            -0.0144     1.2106     0.0087 C.2     
   3 C3             1.2542     1.9662     0.0006 C.ar    
   4 C4             2.4747     1.2873    -0.0147 C.ar    
   5 C5             3.6558     1.9985    -0.0221 C.ar    
   6 C6             3.6337     3.3836    -0.0144 C.ar    
   7 C7             2.4265     4.0627     0.0008 C.ar    
   8 C8             1.2385     3.3628     0.0025 C.ar    
   9 Cl9            5.1252     4.2719    -0.0232 Cl      
  10 O10           -1.1901     1.8683     0.0178 O.3     
  11 C11           -2.3970     1.0610     0.0192 C.3     
  12 C12           -2.8164     0.7680     1.4615 C.3     
  13 N13           -4.1549     1.3071     1.7139 N.4     
  14 C14           -5.1399     0.6751     0.8330 C.3     
  15 C15           -4.7976     0.9657    -0.6299 C.3     
  16 C16           -3.5284     1.8264    -0.6796 C.3     
  17 C17           -3.7912     3.1209     0.1012 C.3     
  18 C18           -4.1660     2.7616     1.5407 C.3     
  19 H19            2.4932     0.2075    -0.0203 H       
  20 H20            4.6002     1.4747    -0.0335 H       
  21 H21            2.4157     5.1426     0.0067 H       
  22 H22            0.2979     3.8934     0.0140 H       
  23 H23           -2.2099     0.1235    -0.5044 H       
  24 H24           -2.8240    -0.3097     1.6241 H       
  25 H25           -2.1053     1.2305     2.1460 H       
  26 H26           -4.4054     1.1048     2.6701 H       
  27 H27           -5.1346    -0.4023     0.9986 H       
  28 H28           -6.1312     1.0688     1.0576 H       
  29 H29           -4.6239     0.0279    -1.1577 H       
  30 H30           -5.6221     1.5033    -1.0982 H       
  31 H31           -3.2573     2.0403    -1.7135 H       
  32 H32           -2.8918     3.7367     0.1008 H       
  33 H33           -4.6111     3.6680    -0.3640 H       
  34 H34           -5.1624     3.1444     1.7613 H       
  35 H35           -3.4474     3.2127     2.2249 H       
@<TRIPOS>BOND
   1    1    2 2
   2    2    3 1
   3    2   10 1
   4    3    4 ar
   5    3    8 ar
   6    4    5 ar
   7    4   19 1
   8    5    6 ar
   9    5   20 1
  10    6    7 ar
  11    6    9 1
  12    7    8 ar
  13    7   21 1
  14    8   22 1
  15   10   11 1
  16   11   12 1
  17   11   16 1
  18   11   23 1
  19   12   13 1
  20   12   24 1
  21   12   25 1
  22   13   14 1
  23   13   18 1
  24   13   26 1
  25   14   15 1
  26   14   27 1
  27   14   28 1
  28   15   16 1
  29   15   29 1
  30   15   30 1
  31   16   17 1
  32   16   31 1
  33   17   18 1
  34   17   32 1
  35   17   33 1
  36   18   34 1
  37   18   35 1

#	End of record

