#	Name: ASD08178016
#	Creating user name:	WinNT
#	Creation time:	15. 06. 2019 21:18

#	Modifying user name:	WinNT
#	Modification time:	15. 06. 2019 21:18

#	Program:	/corina/corina34_cracker 3.40 0067  02.08.2006

@<TRIPOS>MOLECULE
ASD08178016
  65   68    0    0    0
SMALL
NO_CHARGES


@<TRIPOS>ATOM
   1 C1             0.2012     1.4588     1.3789 C.2     
   2 C2             0.1247    -0.0388     1.5279 C.3     
   3 C3            -0.1226    -0.6756     0.1588 C.3     
   4 S4            -0.2147    -2.4783     0.3382 S.3     
   5 C5            -0.5067    -3.0431    -1.3608 C.3     
   6 C6            -0.6104    -4.5694    -1.3801 C.3     
   7 C7            -0.8530    -5.0385    -2.7916 C.2     
   8 S8            -2.4262    -5.2697    -3.5552 S.3     
   9 C9            -1.6346    -5.7629    -4.9921 C.2     
  10 N10           -0.3512    -5.7176    -4.7970 N.2     
  11 N11            0.0563    -5.3391    -3.6636 N.2     
  12 N12           -2.2620    -6.1485    -6.1719 N.am    
  13 C13           -1.5246    -6.5168    -7.2382 C.2     
  14 O14           -0.3137    -6.5120    -7.1688 O.2     
  15 C15           -2.2045    -6.9346    -8.5165 C.3     
  16 N16           -1.1943    -7.1460    -9.5619 N.3     
  17 C17           -0.5385    -5.8811    -9.9244 C.3     
  18 C18           -1.7875    -7.7834   -10.7465 C.3     
  19 C19           -0.6915    -8.0390   -11.7845 C.3     
  20 O20           -0.0445    -6.8035   -12.1013 O.3     
  21 C21            0.5449    -6.1558   -10.9706 C.3     
  22 S22            1.6598     2.4000     1.0653 S.3     
  23 N23           -0.7930     2.2856     1.4526 N.2     
  24 N24           -0.5227     3.5093     1.2991 N.2     
  25 C25            0.7169     3.8302     1.0808 C.2     
  26 N26            1.1985     5.1208     0.8893 N.am    
  27 C27            0.3509     6.1681     0.9223 C.2     
  28 O28           -0.8319     5.9851     1.1189 O.2     
  29 C29            0.8727     7.5666     0.7148 C.3     
  30 N30           -0.2553     8.5053     0.6484 N.3     
  31 C31           -1.0697     8.2662    -0.5520 C.3     
  32 C32            0.2149     9.8976     0.6901 C.3     
  33 C33           -0.9926    10.8388     0.6789 C.3     
  34 O34           -1.7890    10.5707    -0.4783 O.3     
  35 C35           -2.2642     9.2238    -0.5507 C.3     
  36 H36            1.0634    -0.4116     1.9378 H       
  37 H37           -0.6931    -0.2957     2.2011 H       
  38 H38           -1.0613    -0.3028    -0.2510 H       
  39 H39            0.6952    -0.4187    -0.5144 H       
  40 H40           -1.4358    -2.6110    -1.7326 H       
  41 H41            0.3207    -2.7270    -1.9960 H       
  42 H42            0.3187    -5.0014    -1.0083 H       
  43 H43           -1.4378    -4.8855    -0.7449 H       
  44 H44           -3.2304    -6.1523    -6.2273 H       
  45 H45           -2.7542    -7.8609    -8.3498 H       
  46 H46           -2.8961    -6.1535    -8.8322 H       
  47 H47           -1.2769    -5.1935   -10.3369 H       
  48 H48           -0.0844    -5.4394    -9.0374 H       
  49 H49           -2.2450    -8.7302   -10.4596 H       
  50 H50           -2.5458    -7.1262   -11.1722 H       
  51 H51            0.0389    -8.7385   -11.3779 H       
  52 H52           -1.1356    -8.4591   -12.6869 H       
  53 H53            0.9950    -5.2139   -11.2844 H       
  54 H54            1.3112    -6.8006   -10.5403 H       
  55 H55            2.1444     5.2671     0.7321 H       
  56 H56            1.5233     7.8386     1.5460 H       
  57 H57            1.4365     7.6095    -0.2170 H       
  58 H58           -0.4653     8.4395    -1.4423 H       
  59 H59           -1.4283     7.2369    -0.5494 H       
  60 H60            0.7939    10.0592     1.5993 H       
  61 H61            0.8398    10.0970    -0.1804 H       
  62 H62           -1.5889    10.6765     1.5767 H       
  63 H63           -0.6480    11.8726     0.6521 H       
  64 H64           -2.8394     9.0895    -1.4668 H       
  65 H65           -2.8976     9.0145     0.3114 H       
@<TRIPOS>BOND
   1    1    2 1
   2    1   22 1
   3    1   23 2
   4    2    3 1
   5    2   36 1
   6    2   37 1
   7    3    4 1
   8    3   38 1
   9    3   39 1
  10    4    5 1
  11    5    6 1
  12    5   40 1
  13    5   41 1
  14    6    7 1
  15    6   42 1
  16    6   43 1
  17    7    8 1
  18    7   11 2
  19    8    9 1
  20    9   10 2
  21    9   12 1
  22   10   11 1
  23   12   13 am
  24   12   44 1
  25   13   14 2
  26   13   15 1
  27   15   16 1
  28   15   45 1
  29   15   46 1
  30   16   17 1
  31   16   18 1
  32   17   21 1
  33   17   47 1
  34   17   48 1
  35   18   19 1
  36   18   49 1
  37   18   50 1
  38   19   20 1
  39   19   51 1
  40   19   52 1
  41   20   21 1
  42   21   53 1
  43   21   54 1
  44   22   25 1
  45   23   24 1
  46   24   25 2
  47   25   26 1
  48   26   27 am
  49   26   55 1
  50   27   28 2
  51   27   29 1
  52   29   30 1
  53   29   56 1
  54   29   57 1
  55   30   31 1
  56   30   32 1
  57   31   35 1
  58   31   58 1
  59   31   59 1
  60   32   33 1
  61   32   60 1
  62   32   61 1
  63   33   34 1
  64   33   62 1
  65   33   63 1
  66   34   35 1
  67   35   64 1
  68   35   65 1

#	End of record

