#	Name: ASD01850030
#	Creating user name:	WinNT
#	Creation time:	15. 06. 2019 19:38

#	Modifying user name:	WinNT
#	Modification time:	15. 06. 2019 19:38

#	Program:	/corina/corina34_cracker 3.40 0067  02.08.2006

@<TRIPOS>MOLECULE
ASD01850030
  48   52    0    0    0
SMALL
NO_CHARGES


@<TRIPOS>ATOM
   1 C1             1.0784     1.1155     0.2212 C.3     
   2 C2             0.8089    -0.3636     0.1176 C.ar    
   3 C3             0.8063    -1.1471     1.2564 C.ar    
   4 C4             0.5591    -2.5038     1.1614 C.ar    
   5 C5             0.3140    -3.0770    -0.0724 C.ar    
   6 C6             0.3156    -2.2933    -1.2112 C.ar    
   7 C7             0.5585    -0.9358    -1.1156 C.ar    
   8 C8             0.0454    -4.5562    -0.1762 C.3     
   9 N9            -0.6196    -5.0536     1.0340 N.am    
  10 C10            0.4515    -5.5375     1.9312 C.3     
  11 C11            1.7692    -5.3517     1.1404 C.3     
  12 N12            1.3137    -5.3219    -0.2604 N.am    
  13 C13            1.4864    -5.6785    -1.5334 C.2     
  14 O14            2.5385    -6.0391    -2.0239 O.2     
  15 C15            0.2014    -5.5681    -2.2571 C.ar    
  16 C16           -0.7185    -4.8753    -1.4295 C.ar    
  17 C17           -2.0052    -4.6527    -1.8625 C.ar    
  18 C18           -2.4020    -5.0948    -3.1131 C.ar    
  19 C19           -1.5078    -5.7617    -3.9323 C.ar    
  20 C20           -0.2062    -5.9942    -3.5211 C.ar    
  21 C21           -1.9448    -5.0660     1.2794 C.2     
  22 O22           -2.7129    -4.5433     0.4957 O.2     
  23 C23           -2.4642    -5.7155     2.5020 C.ar    
  24 C24           -3.8386    -5.8822     2.6763 C.ar    
  25 C25           -4.3186    -6.4904     3.8208 C.ar    
  26 F26           -5.6490    -6.6525     3.9909 F       
  27 C27           -3.4381    -6.9345     4.7936 C.ar    
  28 C28           -2.0727    -6.7711     4.6259 C.ar    
  29 C29           -1.5815    -6.1691     3.4829 C.ar    
  30 F30           -1.2195    -7.2058     5.5790 F       
  31 H31            2.1492     1.2971     0.1280 H       
  32 H32            0.5505     1.6378    -0.5767 H       
  33 H33            0.7306     1.4814     1.1872 H       
  34 H34            0.9979    -0.6993     2.2204 H       
  35 H35            0.5578    -3.1161     2.0511 H       
  36 H36            0.1244    -2.7411    -2.1752 H       
  37 H37            0.5598    -0.3235    -2.0053 H       
  38 H38            0.4738    -4.9449     2.8457 H       
  39 H39            0.2986    -6.5906     2.1672 H       
  40 H40            2.2508    -4.4116     1.4093 H       
  41 H41            2.4419    -6.1927     1.3091 H       
  42 H42           -2.7063    -4.1330    -1.2263 H       
  43 H43           -3.4128    -4.9190    -3.4504 H       
  44 H44           -1.8222    -6.1000    -4.9085 H       
  45 H45            0.4815    -6.5157    -4.1703 H       
  46 H46           -4.5260    -5.5364     1.9185 H       
  47 H47           -3.8174    -7.4096     5.6863 H       
  48 H48           -0.5168    -6.0425     3.3530 H       
@<TRIPOS>BOND
   1    1    2 1
   2    1   31 1
   3    1   32 1
   4    1   33 1
   5    2    3 ar
   6    2    7 ar
   7    3    4 ar
   8    3   34 1
   9    4    5 ar
  10    4   35 1
  11    5    6 ar
  12    5    8 1
  13    6    7 ar
  14    6   36 1
  15    7   37 1
  16    8    9 1
  17    8   12 1
  18    8   16 1
  19    9   10 1
  20    9   21 am
  21   10   11 1
  22   10   38 1
  23   10   39 1
  24   11   12 1
  25   11   40 1
  26   11   41 1
  27   12   13 am
  28   13   14 2
  29   13   15 1
  30   15   16 ar
  31   15   20 ar
  32   16   17 ar
  33   17   18 ar
  34   17   42 1
  35   18   19 ar
  36   18   43 1
  37   19   20 ar
  38   19   44 1
  39   20   45 1
  40   21   22 2
  41   21   23 1
  42   23   24 ar
  43   23   29 ar
  44   24   25 ar
  45   24   46 1
  46   25   26 1
  47   25   27 ar
  48   27   28 ar
  49   27   47 1
  50   28   29 ar
  51   28   30 1
  52   29   48 1

#	End of record

