#	Name: ASD00069093
#	Creating user name:	WinNT
#	Creation time:	15. 06. 2019 18:29

#	Modifying user name:	WinNT
#	Modification time:	15. 06. 2019 18:29

#	Program:	/corina/corina34_cracker 3.40 0067  02.08.2006

@<TRIPOS>MOLECULE
ASD00069093
  57   62    0    0    0
SMALL
NO_CHARGES


@<TRIPOS>ATOM
   1 N1            -0.0179     1.4659     0.0101 N.3     
   2 C2             0.0021    -0.0041     0.0020 C.3     
   3 C3             0.7497    -0.4921    -1.2417 C.3     
   4 O4             2.0659     0.0673    -1.2506 O.3     
   5 C5             2.0838     1.4973    -1.2437 C.3     
   6 C6             1.3496     2.0055    -0.0001 C.3     
   7 C7            -2.6141     4.9672     3.9202 C.2     
   8 N8            -1.8966     5.0448     2.8245 N.2     
   9 C9            -1.5969     3.7977     2.3864 C.ar    
  10 C10           -2.1785     2.8888     3.2876 C.ar    
  11 N11           -2.8164     3.6535     4.2489 N.pl3   
  12 C12           -2.0341     1.5231     3.0876 C.ar    
  13 C13           -1.3204     1.0580     2.0042 C.ar    
  14 C14           -0.7404     1.9516     1.1055 C.ar    
  15 C15           -0.8741     3.3145     1.2906 C.ar    
  16 N16           -4.1338     7.3647     6.2239 N.pl3   
  17 N17           -3.8398     6.0700     5.7849 N.2     
  18 C18           -3.1215     6.1221     4.6865 C.2     
  19 C19           -2.9153     7.5384     4.3600 C.ar    
  20 C20           -2.2466     8.2068     3.3325 C.ar    
  21 C21           -2.2399     9.5887     3.3111 C.ar    
  22 C22           -2.8955    10.3105     4.3083 C.ar    
  23 C23           -3.5523     9.6669     5.3176 C.ar    
  24 C24           -3.5739     8.2750     5.3607 C.ar    
  25 N25           -1.5723    10.2662     2.2853 N.pl3   
  26 C26           -6.4042     7.4460     7.1321 C.3     
  27 C27           -4.9206     7.6979     7.4140 C.3     
  28 O28           -4.4995     6.8806     8.5079 O.3     
  29 C29           -5.1889     7.1433     9.7318 C.3     
  30 C30           -6.6832     6.8692     9.5431 C.3     
  31 C31           -7.2135     7.7390     8.3992 C.3     
  32 H32            0.5087    -0.3661     0.8967 H       
  33 H33           -1.0202    -0.3818    -0.0162 H       
  34 H34            0.8167    -1.5799    -1.2226 H       
  35 H35            0.2136    -0.1754    -2.1363 H       
  36 H36            3.1155     1.8483    -1.2262 H       
  37 H37            1.5864     1.8718    -2.1384 H       
  38 H38            1.3110     3.0946    -0.0198 H       
  39 H39            1.8778     1.6756     0.8946 H       
  40 H40           -3.3136     3.3210     5.0125 H       
  41 H41           -2.4807     0.8254     3.7804 H       
  42 H42           -1.2093    -0.0053     1.8512 H       
  43 H43           -0.4234     4.0035     0.5917 H       
  44 H44           -1.7382     7.6482     2.5605 H       
  45 H45           -2.8831    11.3902     4.2821 H       
  46 H46           -4.0557    10.2380     6.0837 H       
  47 H47           -1.1155     9.7662     1.5910 H       
  48 H48           -1.5663    11.2360     2.2684 H       
  49 H49           -6.7382     8.1004     6.3270 H       
  50 H50           -6.5480     6.4056     6.8405 H       
  51 H51           -4.7717     8.7478     7.6660 H       
  52 H52           -4.7968     6.4960    10.5161 H       
  53 H53           -5.0435     8.1860    10.0143 H       
  54 H54           -6.8327     5.8171     9.3002 H       
  55 H55           -7.2168     7.1111    10.4622 H       
  56 H56           -7.1095     8.7915     8.6630 H       
  57 H57           -8.2640     7.5082     8.2224 H       
@<TRIPOS>BOND
   1    1    2 1
   2    1    6 1
   3    1   14 1
   4    2    3 1
   5    2   32 1
   6    2   33 1
   7    3    4 1
   8    3   34 1
   9    3   35 1
  10    4    5 1
  11    5    6 1
  12    5   36 1
  13    5   37 1
  14    6   38 1
  15    6   39 1
  16    7    8 2
  17    7   11 1
  18    7   18 1
  19    8    9 1
  20    9   10 ar
  21    9   15 ar
  22   10   11 1
  23   10   12 ar
  24   11   40 1
  25   12   13 ar
  26   12   41 1
  27   13   14 ar
  28   13   42 1
  29   14   15 ar
  30   15   43 1
  31   16   17 1
  32   16   24 1
  33   16   27 1
  34   17   18 2
  35   18   19 1
  36   19   20 ar
  37   19   24 ar
  38   20   21 ar
  39   20   44 1
  40   21   22 ar
  41   21   25 1
  42   22   23 ar
  43   22   45 1
  44   23   24 ar
  45   23   46 1
  46   25   47 1
  47   25   48 1
  48   26   27 1
  49   26   31 1
  50   26   49 1
  51   26   50 1
  52   27   28 1
  53   27   51 1
  54   28   29 1
  55   29   30 1
  56   29   52 1
  57   29   53 1
  58   30   31 1
  59   30   54 1
  60   30   55 1
  61   31   56 1
  62   31   57 1

#	End of record

