#	Name: ASD01230173
#	Creating user name:	WinNT
#	Creation time:	15. 06. 2019 19:11

#	Modifying user name:	WinNT
#	Modification time:	15. 06. 2019 19:11

#	Program:	/corina/corina34_cracker 3.40 0067  02.08.2006

@<TRIPOS>MOLECULE
ASD01230173
  41   44    0    0    0
SMALL
NO_CHARGES


@<TRIPOS>ATOM
   1 S1            -0.0203     1.6432     0.0111 S.o2    
   2 N2             0.0021    -0.0041     0.0020 N.am    
   3 C3             1.0582    -0.7115     0.0766 C.2     
   4 N4             2.3239    -0.2014     0.2156 N.pl3   
   5 C5             2.5547     1.1284     0.7685 C.3     
   6 C6             1.7187     2.1517    -0.0028 C.3     
   7 C7             0.9691    -2.2282     0.0263 C.3     
   8 C8             2.0432    -2.7791     0.9676 C.3     
   9 C9             3.4382    -2.3754     0.5096 C.3     
  10 C10            3.4443    -1.0396    -0.2239 C.3     
  11 C11           -0.3942    -2.6772     0.4854 C.2     
  12 C12           -1.2607    -3.3790    -0.2507 C.2     
  13 O13           -0.6472     1.9881    -1.2166 O.2     
  14 O14           -0.6237     1.9749     1.2541 O.2     
  15 C15           -2.4519    -3.6795     0.3771 C.2     
  16 C16           -2.5561    -3.2169     1.6388 C.2     
  17 S17           -1.0812    -2.3628     2.0735 S.3     
  18 C18           -3.7263    -3.4039     2.5226 C.ar    
  19 C19           -3.7197    -2.8772     3.8151 C.ar    
  20 C20           -4.8149    -3.0553     4.6349 C.ar    
  21 C21           -5.9182    -3.7543     4.1783 C.ar    
  22 C22           -5.9310    -4.2793     2.8983 C.ar    
  23 C23           -4.8448    -4.1030     2.0662 C.ar    
  24 H24            2.2653     1.1405     1.8193 H       
  25 H25            3.6113     1.3809     0.6793 H       
  26 H26            2.0726     2.2083    -1.0322 H       
  27 H27            1.8152     3.1296     0.4690 H       
  28 H28            1.1525    -2.5769    -0.9900 H       
  29 H29            1.8709    -2.3915     1.9717 H       
  30 H30            1.9753    -3.8668     0.9892 H       
  31 H31            4.0887    -2.3026     1.3812 H       
  32 H32            3.8279    -3.1455    -0.1561 H       
  33 H33            3.3602    -1.2183    -1.2958 H       
  34 H34            4.3816    -0.5221    -0.0194 H       
  35 H35           -1.0447    -3.6879    -1.2628 H       
  36 H36           -3.2390    -4.2407    -0.1046 H       
  37 H37           -2.8589    -2.3317     4.1729 H       
  38 H38           -4.8110    -2.6486     5.6354 H       
  39 H39           -6.7731    -3.8909     4.8240 H       
  40 H40           -6.7952    -4.8242     2.5480 H       
  41 H41           -4.8560    -4.5133     1.0673 H       
@<TRIPOS>BOND
   1    1    2 am
   2    1    6 1
   3    1   13 2
   4    1   14 2
   5    2    3 2
   6    3    4 1
   7    3    7 1
   8    4    5 1
   9    4   10 1
  10    5    6 1
  11    5   24 1
  12    5   25 1
  13    6   26 1
  14    6   27 1
  15    7    8 1
  16    7   11 1
  17    7   28 1
  18    8    9 1
  19    8   29 1
  20    8   30 1
  21    9   10 1
  22    9   31 1
  23    9   32 1
  24   10   33 1
  25   10   34 1
  26   11   12 2
  27   11   17 1
  28   12   15 1
  29   12   35 1
  30   15   16 2
  31   15   36 1
  32   16   17 1
  33   16   18 1
  34   18   19 ar
  35   18   23 ar
  36   19   20 ar
  37   19   37 1
  38   20   21 ar
  39   20   38 1
  40   21   22 ar
  41   21   39 1
  42   22   23 ar
  43   22   40 1
  44   23   41 1

#	End of record

