#	Name: ASD03430778
#	Creating user name:	WinNT
#	Creation time:	15. 06. 2019 20:41

#	Modifying user name:	WinNT
#	Modification time:	15. 06. 2019 20:41

#	Program:	/corina/corina34_cracker 3.40 0067  02.08.2006

@<TRIPOS>MOLECULE
ASD03430778
  30   33    0    0    0
SMALL
NO_CHARGES


@<TRIPOS>ATOM
   1 C1            -0.0169     1.3939     0.0097 C.ar    
   2 C2             0.0021    -0.0041     0.0020 C.ar    
   3 C3             1.2003    -0.6752    -0.0132 C.ar    
   4 C4             2.4091     0.0219    -0.0124 C.ar    
   5 C5             2.3898     1.4154    -0.0090 C.ar    
   6 C6             1.1931     2.0986     0.0019 C.ar    
   7 C7             1.5513    -2.1390    -0.0455 C.3     
   8 C8             3.0355    -2.1359    -0.4359 C.3     
   9 C9             0.4294    -3.8484     1.0218 C.ar    
  10 C10            1.3213    -2.8097     1.2762 C.ar    
  11 C11            0.7143    -2.9028    -1.0307 C.2     
  12 N12            0.0938    -3.8758    -0.3340 N.am    
  13 O13            0.6159    -2.6867    -2.2201 O.2     
  14 C14            1.7956    -2.5894     2.5502 C.ar    
  15 C15            1.3863    -3.4024     3.5921 C.ar    
  16 C16            0.4998    -4.4362     3.3512 C.ar    
  17 C17            0.0225    -4.6614     2.0769 C.ar    
  18 O18            3.4698    -0.8324    -0.0031 O.3     
  19 F19            1.1873     3.4496     0.0047 F       
  20 C20           -1.2632     2.0991     0.0194 C.1     
  21 N21           -2.2518     2.6586     0.0272 N.1     
  22 H22           -0.9259    -0.5565     0.0084 H       
  23 H23            3.3200     1.9642    -0.0147 H       
  24 H24            3.5766    -2.9198     0.0940 H       
  25 H25            3.1523    -2.2445    -1.5141 H       
  26 H26           -0.5147    -4.5202    -0.7282 H       
  27 H27            2.4879    -1.7816     2.7360 H       
  28 H28            1.7585    -3.2303     4.5912 H       
  29 H29            0.1800    -5.0704     4.1647 H       
  30 H30           -0.6695    -5.4707     1.8966 H       
@<TRIPOS>BOND
   1    1    2 ar
   2    1    6 ar
   3    1   20 1
   4    2    3 ar
   5    2   22 1
   6    3    4 ar
   7    3    7 1
   8    4    5 ar
   9    4   18 1
  10    5    6 ar
  11    5   23 1
  12    6   19 1
  13    7    8 1
  14    7   10 1
  15    7   11 1
  16    8   18 1
  17    8   24 1
  18    8   25 1
  19    9   10 ar
  20    9   12 1
  21    9   17 ar
  22   10   14 ar
  23   11   12 am
  24   11   13 2
  25   12   26 1
  26   14   15 ar
  27   14   27 1
  28   15   16 ar
  29   15   28 1
  30   16   17 ar
  31   16   29 1
  32   17   30 1
  33   20   21 3

#	End of record

