#	Name: ASD01840306
#	Creating user name:	WinNT
#	Creation time:	15. 06. 2019 19:37

#	Modifying user name:	WinNT
#	Modification time:	15. 06. 2019 19:37

#	Program:	/corina/corina34_cracker 3.40 0067  02.08.2006

@<TRIPOS>MOLECULE
ASD01840306
  57   61    0    0    0
SMALL
NO_CHARGES


@<TRIPOS>ATOM
   1 C1             2.6041    -0.1317     3.3802 C.3     
   2 N2             1.9467    -1.1431     2.5490 N.am    
   3 C3             1.0513    -2.1988     3.0353 C.3     
   4 H4             0.1798    -1.7575     3.5190 H       
   5 C5             1.7938    -3.1068     4.0177 C.3     
   6 O6             2.1213    -2.3671     5.1957 O.3     
   7 C7             0.6266    -2.9858     1.8191 C.ar    
   8 N8            -0.1574    -4.0271     1.6538 N.ar    
   9 C9            -0.3763    -4.5464     0.4521 C.ar    
  10 N10           -1.2102    -5.6444     0.3245 N.3     
  11 C11           -0.6874    -6.7925     1.0762 C.3     
  12 C12           -1.5519    -8.0238     0.7960 C.3     
  13 C13           -2.9965    -7.7325     1.2118 C.3     
  14 C14           -3.5007    -6.5036     0.4503 C.3     
  15 C15           -2.5797    -5.3163     0.7405 C.3     
  16 O16           -3.8194    -8.8584     0.9000 O.3     
  17 C17           -4.9552    -9.0135     1.6299 C.ar    
  18 C18           -5.3267    -8.0397     2.5458 C.ar    
  19 C19           -6.4850    -8.1995     3.2843 C.ar    
  20 C20           -7.2650    -9.3214     3.1098 C.ar    
  21 C21           -8.5702    -9.7614     3.7447 C.3     
  22 C22           -9.0351   -10.8776     2.7797 C.3     
  23 O23           -7.8006   -11.3307     2.1986 O.3     
  24 C24           -6.9018   -10.3081     2.2010 C.ar    
  25 C25           -5.7406   -10.1400     1.4530 C.ar    
  26 C26            0.2212    -4.0016    -0.6829 C.ar    
  27 C27           -0.0383    -4.6024    -2.0404 C.3     
  28 C28            1.0455    -2.9158    -0.5547 C.ar    
  29 C29            1.2594    -2.3879     0.7264 C.ar    
  30 C30            2.0596    -1.2537     1.2140 C.2     
  31 O31            2.7294    -0.5225     0.5104 O.2     
  32 H32            3.2043     0.5235     2.7488 H       
  33 H33            1.8491     0.4573     3.9010 H       
  34 H34            3.2481    -0.6233     4.1094 H       
  35 H35            1.1578    -3.9511     4.2840 H       
  36 H36            2.7089    -3.4737     3.5529 H       
  37 H37            2.5946    -2.8812     5.8641 H       
  38 H38            0.3390    -6.9915     0.7680 H       
  39 H39           -0.7092    -6.5685     2.1427 H       
  40 H40           -1.5195    -8.2565    -0.2684 H       
  41 H41           -1.1730    -8.8719     1.3662 H       
  42 H42           -3.0348    -7.5379     2.2836 H       
  43 H43           -3.4990    -6.7124    -0.6195 H       
  44 H44           -4.5141    -6.2656     0.7735 H       
  45 H45           -2.5926    -5.0993     1.8086 H       
  46 H46           -2.9277    -4.4433     0.1885 H       
  47 H47           -4.7138    -7.1609     2.6817 H       
  48 H48           -6.7780    -7.4444     3.9987 H       
  49 H49           -8.4021   -10.1574     4.7462 H       
  50 H50           -9.2883    -8.9417     3.7670 H       
  51 H51           -9.5225   -11.6837     3.3280 H       
  52 H52           -9.6975   -10.4746     2.0136 H       
  53 H53           -5.4487   -10.8925     0.7354 H       
  54 H54           -0.8935    -4.1066    -2.4997 H       
  55 H55            0.8408    -4.4689    -2.6708 H       
  56 H56           -0.2499    -5.6662    -1.9325 H       
  57 H57            1.5199    -2.4766    -1.4199 H       
@<TRIPOS>BOND
   1    1    2 1
   2    1   32 1
   3    1   33 1
   4    1   34 1
   5    2   30 am
   6    2    3 1
   7    3    4 1
   8    3    5 1
   9    3    7 1
  10    5    6 1
  11    5   35 1
  12    5   36 1
  13    6   37 1
  14    7   29 ar
  15    7    8 ar
  16    8    9 ar
  17    9   10 1
  18    9   26 ar
  19   10   15 1
  20   10   11 1
  21   11   12 1
  22   11   38 1
  23   11   39 1
  24   12   13 1
  25   12   40 1
  26   12   41 1
  27   13   14 1
  28   13   16 1
  29   13   42 1
  30   14   15 1
  31   14   43 1
  32   14   44 1
  33   15   45 1
  34   15   46 1
  35   16   17 1
  36   17   25 ar
  37   17   18 ar
  38   18   19 ar
  39   18   47 1
  40   19   20 ar
  41   19   48 1
  42   20   24 ar
  43   20   21 1
  44   21   22 1
  45   21   49 1
  46   21   50 1
  47   22   23 1
  48   22   51 1
  49   22   52 1
  50   23   24 1
  51   24   25 ar
  52   25   53 1
  53   26   27 1
  54   26   28 ar
  55   27   54 1
  56   27   55 1
  57   27   56 1
  58   28   29 ar
  59   28   57 1
  60   29   30 1
  61   30   31 2

#	End of record

