#	Name: ASD08170190
#	Creating user name:	WinNT
#	Creation time:	15. 06. 2019 21:17

#	Modifying user name:	WinNT
#	Modification time:	15. 06. 2019 21:17

#	Program:	/corina/corina34_cracker 3.40 0067  02.08.2006

@<TRIPOS>MOLECULE
ASD08170190
  55   58    0    0    0
SMALL
NO_CHARGES


@<TRIPOS>ATOM
   1 N1            -0.0150     1.2583     0.0090 N.2     
   2 N2             0.0021    -0.0041     0.0020 N.2     
   3 C3             1.1271     1.8769     0.0014 C.2     
   4 S4             2.3826     0.7116    -0.0169 S.3     
   5 C5             1.1681    -0.5677    -0.0121 C.2     
   6 C6             1.4387    -2.0502    -0.0227 C.3     
   7 C7             1.5165    -2.5442    -1.4687 C.3     
   8 S8             1.8422    -4.3286    -1.4814 S.3     
   9 C9             1.8986    -4.7206    -3.2516 C.3     
  10 C10            2.1699    -6.2152    -3.4347 C.3     
  11 C11            2.2167    -6.5408    -4.9053 C.2     
  12 N12            3.2694    -6.5184    -5.6596 N.2     
  13 S13            0.8491    -7.0282    -5.9071 S.3     
  14 C14            1.9000    -7.1354    -7.2557 C.2     
  15 N15            3.1017    -6.8250    -6.8728 N.2     
  16 N16            1.5289    -7.4992    -8.5457 N.am    
  17 C17            2.4537    -7.5464    -9.5250 C.2     
  18 O18            3.6096    -7.2716    -9.2812 O.2     
  19 C19            2.0516    -7.9407   -10.9228 C.3     
  20 N20            1.3017     3.2566     0.0067 N.am    
  21 C21            0.2284     4.0717     0.0214 C.2     
  22 O22           -0.8897     3.6019     0.0299 O.2     
  23 C23            0.4176     5.5667     0.0272 C.3     
  24 C24            1.0781     6.0164    -1.2905 C.3     
  25 C25            1.0931    -6.8862   -11.5094 C.3     
  26 O26            3.2111    -7.9832   -11.7713 O.3     
  27 C27            2.7885    -7.5568   -13.0843 C.3     
  28 C28            1.8108    -6.3910   -12.7886 C.3     
  29 C29            0.0675     7.0191    -1.8987 C.3     
  30 C30           -0.7595     7.4399    -0.6571 C.3     
  31 O31           -0.8597     6.2208     0.1098 O.3     
  32 H32            2.3843    -2.2506     0.4811 H       
  33 H33            0.6334    -2.5702     0.4961 H       
  34 H34            0.5709    -2.3438    -1.9724 H       
  35 H35            2.3218    -2.0242    -1.9874 H       
  36 H36            0.9434    -4.4658    -3.7108 H       
  37 H37            2.6943    -4.1461    -3.7258 H       
  38 H38            3.1250    -6.4700    -2.9755 H       
  39 H39            1.3741    -6.7896    -2.9605 H       
  40 H40            0.6045    -7.7190    -8.7407 H       
  41 H41            1.5650    -8.9159   -10.9072 H       
  42 H42            2.1959     3.6323    -0.0001 H       
  43 H43            1.0410     5.8580     0.8725 H       
  44 H44            2.0305     6.5079    -1.0916 H       
  45 H45            1.2188     5.1652    -1.9566 H       
  46 H46            0.1346    -7.3399   -11.7611 H       
  47 H47            0.9545    -6.0640   -10.8072 H       
  48 H48            3.6403    -7.2051   -13.6664 H       
  49 H49            2.2751    -8.3658   -13.6039 H       
  50 H50            1.1021    -6.2607   -13.6065 H       
  51 H51            2.3549    -5.4663   -12.5962 H       
  52 H52            0.5828     7.8765    -2.3316 H       
  53 H53           -0.5652     6.5320    -2.6406 H       
  54 H54           -0.2353     8.2086    -0.0893 H       
  55 H55           -1.7484     7.7885    -0.9548 H       
@<TRIPOS>BOND
   1    1    2 1
   2    1    3 2
   3    2    5 2
   4    3    4 1
   5    3   20 1
   6    4    5 1
   7    5    6 1
   8    6    7 1
   9    6   32 1
  10    6   33 1
  11    7    8 1
  12    7   34 1
  13    7   35 1
  14    8    9 1
  15    9   10 1
  16    9   36 1
  17    9   37 1
  18   10   11 1
  19   10   38 1
  20   10   39 1
  21   11   12 2
  22   11   13 1
  23   12   15 1
  24   13   14 1
  25   14   15 2
  26   14   16 1
  27   16   17 am
  28   16   40 1
  29   17   18 2
  30   17   19 1
  31   19   25 1
  32   19   26 1
  33   19   41 1
  34   20   21 am
  35   20   42 1
  36   21   22 2
  37   21   23 1
  38   23   24 1
  39   23   31 1
  40   23   43 1
  41   24   29 1
  42   24   44 1
  43   24   45 1
  44   25   28 1
  45   25   46 1
  46   25   47 1
  47   26   27 1
  48   27   28 1
  49   27   48 1
  50   27   49 1
  51   28   50 1
  52   28   51 1
  53   29   30 1
  54   29   52 1
  55   29   53 1
  56   30   31 1
  57   30   54 1
  58   30   55 1

#	End of record

