#	Name: ASD01881092
#	Creating user name:	WinNT
#	Creation time:	15. 06. 2019 19:42

#	Modifying user name:	WinNT
#	Modification time:	15. 06. 2019 19:42

#	Program:	/corina/corina34_cracker 3.40 0067  02.08.2006

@<TRIPOS>MOLECULE
ASD01881092
  22   23    0    0    0
SMALL
NO_CHARGES


@<TRIPOS>ATOM
   1 C1            -0.0168     1.3876     0.0097 C.ar    
   2 C2             0.0021    -0.0041     0.0020 C.ar    
   3 C3             1.1823    -0.6915    -0.0124 C.ar    
   4 C4             2.4039     0.0182    -0.0202 C.ar    
   5 C5             2.3746     1.4357    -0.0129 C.ar    
   6 C6             1.1424     2.1043     0.0025 C.ar    
   7 N7             3.5698    -0.6264    -0.0338 N.ar    
   8 C8             4.7193     0.0228    -0.0408 C.ar    
   9 C9             4.7709     1.4226    -0.0339 C.ar    
  10 C10            3.5952     2.1485    -0.0207 C.ar    
  11 C11            5.9846    -0.7473    -0.0560 C.2     
  12 O12            5.9533    -2.0937    -0.0624 O.3     
  13 O13            7.0499    -0.1647    -0.0626 O.2     
  14 O14            3.6119     3.5046    -0.0145 O.3     
  15 O15            1.1814    -2.0495    -0.0189 O.3     
  16 H16           -0.9637     1.9070     0.0169 H       
  17 H17           -0.9306    -0.5486     0.0080 H       
  18 H18            1.1119     3.1839     0.0078 H       
  19 H19            5.7236     1.9313    -0.0389 H       
  20 H20            6.8045    -2.5525    -0.0722 H       
  21 H21            3.6094     3.9020    -0.8961 H       
  22 H22            1.1728    -2.4387    -0.9041 H       
@<TRIPOS>BOND
   1    1    2 ar
   2    1    6 ar
   3    1   16 1
   4    2    3 ar
   5    2   17 1
   6    3    4 ar
   7    3   15 1
   8    4    5 ar
   9    4    7 ar
  10    5    6 ar
  11    5   10 ar
  12    6   18 1
  13    7    8 ar
  14    8    9 ar
  15    8   11 1
  16    9   10 ar
  17    9   19 1
  18   10   14 1
  19   11   12 1
  20   11   13 2
  21   12   20 1
  22   14   21 1
  23   15   22 1

#	End of record

