#	Name: ASD00840960
#	Creating user name:	WinNT
#	Creation time:	15. 06. 2019 18:40

#	Modifying user name:	WinNT
#	Modification time:	15. 06. 2019 18:40

#	Program:	/corina/corina34_cracker 3.40 0067  02.08.2006

@<TRIPOS>MOLECULE
ASD00840960
  94   99    0    0    0
SMALL
NO_CHARGES


@<TRIPOS>ATOM
   1 F1             6.0650    -1.9522    -2.0313 F       
   2 N2             1.0634     1.4586    -0.7543 N.ar    
   3 C3             1.3248     0.1666    -0.8608 C.ar    
   4 C4             1.2445    -0.6656     0.2487 C.ar    
   5 C5             0.8867    -0.1250     1.4712 C.ar    
   6 C6             0.6204     1.2357     1.5411 C.ar    
   7 C7             0.7198     2.0029     0.3977 C.ar    
   8 C8             1.5428    -2.1374     0.1225 C.3     
   9 C9             1.2605    -2.8495     1.4282 C.2     
  10 C10            0.7224    -2.7537    -1.0124 C.3     
  11 C11           -0.7396    -2.4630    -0.7906 C.2     
  12 N12           -1.6639    -2.9844    -1.6214 N.am    
  13 O13           -1.0844    -1.7598     0.1354 O.2     
  14 C14           -3.0813    -2.6214    -1.4867 C.3     
  15 C15           -3.9098    -3.9045    -1.3690 C.3     
  16 C16           -3.6047    -4.8151    -2.5605 C.3     
  17 C17           -2.1222    -5.1947    -2.5482 C.3     
  18 C18           -1.2726    -3.9219    -2.6829 C.3     
  19 C19           -4.4562    -6.0827    -2.4644 C.3     
  20 C20           -5.9400    -5.7047    -2.4784 C.3     
  21 C21           -6.7864    -6.9792    -2.4436 C.3     
  22 N22           -6.4646    -7.8140    -3.6080 N.3     
  23 C23           -5.0560    -8.2286    -3.5911 C.3     
  24 C24           -4.1579    -6.9914    -3.6602 C.3     
  25 C25           -7.3556    -8.9796    -3.6825 C.3     
  26 O26            0.1885    -2.9249     1.9906 O.2     
  27 N27            2.4206    -3.3828     1.8470 N.am    
  28 C28            3.0200    -2.3605    -0.1065 C.ar    
  29 C29            3.4729    -3.1143     0.9691 C.ar    
  30 C30            3.8806    -1.9712    -1.1083 C.ar    
  31 C31            5.2172    -2.3317    -1.0503 C.ar    
  32 C32            5.6813    -3.0840     0.0182 C.ar    
  33 C33            4.8173    -3.4744     1.0232 C.ar    
  34 F34            6.9842    -3.4366     0.0767 F       
  35 C35            2.2909    -5.9469     2.8384 C.ar    
  36 C36            1.0370    -6.3488     2.4020 C.ar    
  37 C37            3.3115    -6.8715     2.9494 C.ar    
  38 C38            3.0840    -8.1961     2.6257 C.ar    
  39 C39            1.8349    -8.5993     2.1904 C.ar    
  40 C40            0.8111    -7.6789     2.0781 C.ar    
  41 H41            1.6597    -9.6347     1.9381 H       
  42 O42            0.0313    -5.4413     2.2924 O.3     
  43 C43           -1.2333    -5.9263     1.8368 C.3     
  44 C44           -7.0738    -9.7554    -4.9708 C.3     
  45 C45           -7.1092    -9.8877    -2.4761 C.3     
  46 O46            1.6741    -0.3512    -2.0652 O.3     
  47 C47            2.1657    -0.1913    -4.4260 C.3     
  48 C48            1.6309     0.5315    -3.1881 C.3     
  49 S49            2.5837    -4.2574     3.2437 S.o2    
  50 O50            3.9517    -4.1656     3.6171 O.2     
  51 O51            1.5176    -3.8581     4.0940 O.2     
  52 H52            0.8158    -0.7475     2.3509 H       
  53 H53            0.3381     1.6892     2.4797 H       
  54 H54            0.5140     3.0620     0.4467 H       
  55 H55            1.0380    -2.3246    -1.9634 H       
  56 H56            0.8797    -3.8321    -1.0303 H       
  57 H57           -3.2195    -2.0138    -0.5924 H       
  58 H58           -3.3998    -2.0601    -2.3651 H       
  59 H59           -3.6539    -4.4191    -0.4428 H       
  60 H60           -4.9706    -3.6535    -1.3651 H       
  61 H61           -3.8377    -4.2908    -3.4873 H       
  62 H62           -1.8831    -5.6972    -1.6109 H       
  63 H63           -1.9106    -5.8620    -3.3836 H       
  64 H64           -1.4448    -3.4692    -3.6593 H       
  65 H65           -0.2175    -4.1737    -2.5755 H       
  66 H66           -4.2231    -6.6089    -1.5388 H       
  67 H67           -6.1678    -5.0926    -1.6057 H       
  68 H68           -6.1641    -5.1437    -3.3857 H       
  69 H69           -6.5719    -7.5327    -1.5294 H       
  70 H70           -7.8434    -6.7140    -2.4678 H       
  71 H71           -4.8496    -8.7763    -2.6716 H       
  72 H72           -4.8561    -8.8708    -4.4488 H       
  73 H73           -4.3539    -6.4506    -4.5861 H       
  74 H74           -3.1124    -7.2986    -3.6319 H       
  75 H75           -8.3929    -8.6448    -3.6794 H       
  76 H76            3.5142    -1.3857    -1.9385 H       
  77 H77            5.1853    -4.0599     1.8528 H       
  78 H78            4.2880    -6.5591     3.2891 H       
  79 H79            3.8833    -8.9172     2.7125 H       
  80 H80           -0.1645    -7.9944     1.7389 H       
  81 H81           -1.1198    -6.3592     0.8429 H       
  82 H82           -1.5998    -6.6879     2.5251 H       
  83 H83           -1.9449    -5.1017     1.7948 H       
  84 H84           -6.0365   -10.0901    -4.9739 H       
  85 H85           -7.7349   -10.6202    -5.0260 H       
  86 H86           -7.2494    -9.1084    -5.8303 H       
  87 H87           -7.3099    -9.3351    -1.5583 H       
  88 H88           -7.7703   -10.7526    -2.5313 H       
  89 H89           -6.0719   -10.2225    -2.4791 H       
  90 H90            3.1628    -0.5793    -4.2177 H       
  91 H91            1.5006    -1.0165    -4.6805 H       
  92 H92            2.2147     0.5069    -5.2616 H       
  93 H93            0.6017     0.8433    -3.3657 H       
  94 H94            2.2462     1.4081    -2.9850 H       
@<TRIPOS>BOND
   1    1   31 1
   2    2    3 ar
   3    2    7 ar
   4    3    4 ar
   5    3   46 1
   6    4    5 ar
   7    4    8 1
   8    5    6 ar
   9    5   52 1
  10    6    7 ar
  11    6   53 1
  12    7   54 1
  13    8    9 1
  14    8   10 1
  15    8   28 1
  16    9   26 2
  17    9   27 am
  18   10   11 1
  19   10   55 1
  20   10   56 1
  21   11   12 am
  22   11   13 2
  23   12   14 1
  24   12   18 1
  25   14   15 1
  26   14   57 1
  27   14   58 1
  28   15   16 1
  29   15   59 1
  30   15   60 1
  31   16   17 1
  32   16   19 1
  33   16   61 1
  34   17   18 1
  35   17   62 1
  36   17   63 1
  37   18   64 1
  38   18   65 1
  39   19   20 1
  40   19   24 1
  41   19   66 1
  42   20   21 1
  43   20   67 1
  44   20   68 1
  45   21   22 1
  46   21   69 1
  47   21   70 1
  48   22   23 1
  49   22   25 1
  50   23   24 1
  51   23   71 1
  52   23   72 1
  53   24   73 1
  54   24   74 1
  55   25   44 1
  56   25   45 1
  57   25   75 1
  58   27   49 am
  59   27   29 1
  60   28   29 ar
  61   28   30 ar
  62   29   33 ar
  63   30   31 ar
  64   30   76 1
  65   31   32 ar
  66   32   33 ar
  67   32   34 1
  68   33   77 1
  69   35   36 ar
  70   35   37 ar
  71   35   49 1
  72   36   42 1
  73   36   40 ar
  74   37   38 ar
  75   37   78 1
  76   38   39 ar
  77   38   79 1
  78   39   40 ar
  79   39   41 1
  80   40   80 1
  81   42   43 1
  82   43   81 1
  83   43   82 1
  84   43   83 1
  85   44   84 1
  86   44   85 1
  87   44   86 1
  88   45   87 1
  89   45   88 1
  90   45   89 1
  91   46   48 1
  92   47   48 1
  93   47   90 1
  94   47   91 1
  95   47   92 1
  96   48   93 1
  97   48   94 1
  98   49   50 2
  99   49   51 2

#	End of record

