#	Name: ASD01910466
#	Creating user name:	WinNT
#	Creation time:	15. 06. 2019 19:55

#	Modifying user name:	WinNT
#	Modification time:	15. 06. 2019 19:55

#	Program:	/corina/corina34_cracker 3.40 0067  02.08.2006

@<TRIPOS>MOLECULE
ASD01910466
  45   48    0    0    0
SMALL
NO_CHARGES


@<TRIPOS>ATOM
   1 C1             2.8267     0.0673     1.0490 C.ar    
   2 C2             2.3262    -1.3266     0.9583 C.2     
   3 N3             1.0598    -1.7082     0.6771 N.2     
   4 C4             1.0733    -3.0176     0.7012 C.2     
   5 O5             2.3231    -3.3931     0.9907 O.3     
   6 N6             3.0287    -2.4164     1.1297 N.2     
   7 C7            -0.0998    -3.9297     0.4501 C.3     
   8 C8             0.2024    -4.8325    -0.7482 C.3     
   9 C9            -1.0013    -5.7364    -1.0243 C.3     
  10 C10           -1.2590    -6.6242     0.1971 C.3     
  11 N11           -1.4068    -5.7676     1.3817 N.am    
  12 C12           -0.3473    -4.7971     1.6883 C.3     
  13 C13           -2.4937    -5.8702     2.1720 C.2     
  14 C14           -2.5729    -5.0922     3.4198 C.2     
  15 O15           -3.4092    -6.6054     1.8546 O.2     
  16 C16            4.1656     0.3110     1.3489 C.ar    
  17 C17            4.6268     1.6085     1.4318 C.ar    
  18 C18            3.7607     2.6688     1.2178 C.ar    
  19 C19            2.4286     2.4310     0.9193 C.ar    
  20 C20            1.9604     1.1365     0.8288 C.ar    
  21 F21            4.2162     3.9379     1.3008 F       
  22 C22           -3.7560    -4.4173     3.9644 C.2     
  23 C23           -3.3652    -3.8374     5.1132 C.2     
  24 N24           -2.0420    -4.1032     5.3136 N.pl3   
  25 C25           -1.5597    -4.8580     4.3081 C.2     
  26 C26           -5.1348    -4.3809     3.3574 C.3     
  27 H27           -0.9870    -3.3320     0.2407 H       
  28 H28            0.4031    -4.2170    -1.6251 H       
  29 H29            1.0753    -5.4472    -0.5287 H       
  30 H30           -1.8804    -5.1221    -1.2196 H       
  31 H31           -0.7945    -6.3626    -1.8922 H       
  32 H32           -2.1729    -7.1985     0.0452 H       
  33 H33           -0.4180    -7.3028     0.3396 H       
  34 H34            0.5681    -5.3267     1.9523 H       
  35 H35           -0.6596    -4.1658     2.5202 H       
  36 H36            4.8411    -0.5148     1.5166 H       
  37 H37            5.6643     1.7982     1.6642 H       
  38 H38            1.7568     3.2602     0.7536 H       
  39 H39            0.9220     0.9520     0.5961 H       
  40 H40           -3.9957    -3.2559     5.7695 H       
  41 H41           -1.5237    -3.7953     6.0734 H       
  42 H42           -0.5438    -5.2129     4.2157 H       
  43 H43           -5.7167    -5.2254     3.7266 H       
  44 H44           -5.6294    -3.4500     3.6345 H       
  45 H45           -5.0556    -4.4411     2.2719 H       
@<TRIPOS>BOND
   1    1    2 1
   2    1   16 ar
   3    1   20 ar
   4    2    3 1
   5    2    6 2
   6    3    4 2
   7    4    5 1
   8    4    7 1
   9    5    6 1
  10    7    8 1
  11    7   12 1
  12    7   27 1
  13    8    9 1
  14    8   28 1
  15    8   29 1
  16    9   10 1
  17    9   30 1
  18    9   31 1
  19   10   11 1
  20   10   32 1
  21   10   33 1
  22   11   12 1
  23   11   13 am
  24   12   34 1
  25   12   35 1
  26   13   14 1
  27   13   15 2
  28   14   22 1
  29   14   25 2
  30   16   17 ar
  31   16   36 1
  32   17   18 ar
  33   17   37 1
  34   18   19 ar
  35   18   21 1
  36   19   20 ar
  37   19   38 1
  38   20   39 1
  39   22   23 2
  40   22   26 1
  41   23   24 1
  42   23   40 1
  43   24   25 1
  44   24   41 1
  45   25   42 1
  46   26   43 1
  47   26   44 1
  48   26   45 1

#	End of record

