#	Name: ASD01900879
#	Creating user name:	WinNT
#	Creation time:	15. 06. 2019 19:52

#	Modifying user name:	WinNT
#	Modification time:	15. 06. 2019 19:52

#	Program:	/corina/corina34_cracker 3.40 0067  02.08.2006

@<TRIPOS>MOLECULE
ASD01900879
  56   60    0    0    0
SMALL
NO_CHARGES


@<TRIPOS>ATOM
   1 C1             0.1160     1.4890    -1.3253 C.ar    
   2 C2             0.0607     0.1125    -1.3177 C.ar    
   3 C3             1.0375    -0.6282    -0.6644 C.ar    
   4 C4             2.0752     0.0076    -0.0046 C.ar    
   5 C5             2.1394     1.3900     0.0015 C.ar    
   6 C6             1.1618     2.1428    -0.6727 C.ar    
   7 N7             3.1558     2.0646     0.6731 N.pl3   
   8 C8             3.5219     3.4054     0.2080 C.3     
   9 N9             2.3666     4.2092    -0.1871 N.am    
  10 C10            1.2568     3.6121    -0.6715 C.2     
  11 C11            2.4107     5.6034    -0.0620 C.ar    
  12 C12            2.9034     6.3790    -1.1031 C.ar    
  13 C13            2.9466     7.7536    -0.9790 C.ar    
  14 C14            2.4985     8.3597     0.1856 C.ar    
  15 C15            2.0062     7.5855     1.2261 C.ar    
  16 C16            1.9566     6.2111     1.1010 C.ar    
  17 O17            2.5422     9.7132     0.3074 O.3     
  18 O18            0.3408     4.2843    -1.1057 O.2     
  19 C19            2.0646    10.2700     1.5338 C.3     
  20 C20            4.4822     4.1360     1.1554 C.3     
  21 F21            0.9741    -1.9777    -0.6725 F       
  22 F22            2.8231     9.7720     2.5987 F       
  23 F23            2.1810    11.6634     1.4899 F       
  24 F24            0.7222     9.9195     1.7135 F       
  25 C25            4.6533     3.4036    -0.8274 C.3     
  26 C26            5.6292     3.4905     0.3588 C.3     
  27 C27            6.8101     4.4319     0.1131 C.3     
  28 C28            7.3776     4.8815     1.4347 C.ar    
  29 C29            7.4020     6.2264     1.7547 C.ar    
  30 C30            7.9227     6.6402     2.9664 C.ar    
  31 C31            8.4196     5.7098     3.8596 C.ar    
  32 C32            8.3953     4.3630     3.5405 C.ar    
  33 C33            7.8683     3.9490     2.3286 C.ar    
  34 F34            8.8812     3.4527     4.4126 F       
  35 C35            7.8908     3.6974    -0.6827 C.3     
  36 F36            7.3640     3.2800    -1.9097 F       
  37 F37            8.9705     4.5581    -0.9074 F       
  38 F38            8.3263     2.5823     0.0413 F       
  39 H39           -0.6444     2.0595    -1.8379 H       
  40 H40           -0.7481    -0.3943    -1.8230 H       
  41 H41            2.8312    -0.5727     0.5035 H       
  42 H42            3.6089     1.6583     1.4284 H       
  43 H43            3.2529     5.9072    -2.0096 H       
  44 H44            3.3298     8.3570    -1.7886 H       
  45 H45            1.6579     8.0580     2.1326 H       
  46 H46            1.5692     5.6088     1.9094 H       
  47 H47            4.4440     5.2215     1.0646 H       
  48 H48            4.4212     3.7940     2.1886 H       
  49 H49            4.7301     2.4726    -1.3890 H       
  50 H50            4.6624     4.2868    -1.4662 H       
  51 H51            5.9352     2.5180     0.7445 H       
  52 H52            6.4708     5.3007    -0.4511 H       
  53 H53            7.0142     6.9541     1.0573 H       
  54 H54            7.9415     7.6910     3.2152 H       
  55 H55            8.8271     6.0335     4.8060 H       
  56 H56            7.8448     2.8982     2.0805 H       
@<TRIPOS>BOND
   1    1    2 ar
   2    1    6 ar
   3    1   39 1
   4    2    3 ar
   5    2   40 1
   6    3    4 ar
   7    3   21 1
   8    4    5 ar
   9    4   41 1
  10    5    7 1
  11    5    6 ar
  12    6   10 1
  13    7    8 1
  14    7   42 1
  15    8    9 1
  16    8   20 1
  17    8   25 1
  18    9   10 am
  19    9   11 1
  20   10   18 2
  21   11   12 ar
  22   11   16 ar
  23   12   13 ar
  24   12   43 1
  25   13   14 ar
  26   13   44 1
  27   14   15 ar
  28   14   17 1
  29   15   16 ar
  30   15   45 1
  31   16   46 1
  32   17   19 1
  33   19   22 1
  34   19   23 1
  35   19   24 1
  36   20   26 1
  37   20   47 1
  38   20   48 1
  39   25   26 1
  40   25   49 1
  41   25   50 1
  42   26   27 1
  43   26   51 1
  44   27   28 1
  45   27   35 1
  46   27   52 1
  47   28   29 ar
  48   28   33 ar
  49   29   30 ar
  50   29   53 1
  51   30   31 ar
  52   30   54 1
  53   31   32 ar
  54   31   55 1
  55   32   33 ar
  56   32   34 1
  57   33   56 1
  58   35   36 1
  59   35   37 1
  60   35   38 1

#	End of record

