#	Name: ASD09490005
#	Creating user name:	WinNT
#	Creation time:	15. 06. 2019 21:22

#	Modifying user name:	WinNT
#	Modification time:	15. 06. 2019 21:22

#	Program:	/corina/corina34_cracker 3.40 0067  02.08.2006

@<TRIPOS>MOLECULE
ASD09490005
  32   34    0    0    0
SMALL
NO_CHARGES


@<TRIPOS>ATOM
   1 C1             0.0135     1.3554     0.0114 C.ar    
   2 C2            -1.0736     1.7631     0.8110 C.ar    
   3 C3            -2.2612     1.0558     0.8211 C.ar    
   4 C4            -2.3856    -0.0748     0.0307 C.ar    
   5 C5            -1.3159    -0.4875    -0.7647 C.ar    
   6 C6            -0.1453     0.2055    -0.7853 C.ar    
   7 N7             1.0430     2.1955     0.1732 N.2     
   8 N8             0.9379     3.1861     0.9633 N.2     
   9 S9            -0.4806     3.2116     1.6271 S.3     
  10 N10           -3.5813    -0.8020     0.0303 N.am    
  11 C11           -4.7606    -0.1598     0.1463 C.2     
  12 N12           -5.9151    -0.8487     0.0517 N.am    
  13 O13           -4.7829     1.0409     0.3364 O.2     
  14 C14           -7.1970    -0.1507     0.1778 C.3     
  15 C15           -8.3242    -1.1407     0.0352 C.ar    
  16 C16           -8.8266    -1.7817     1.1521 C.ar    
  17 C17           -9.8605    -2.6899     1.0213 C.ar    
  18 C18          -10.3923    -2.9567    -0.2264 C.ar    
  19 C19           -9.8905    -2.3150    -1.3433 C.ar    
  20 C20           -8.8595    -1.4037    -1.2119 C.ar    
  21 H21           -3.0843     1.3816     1.4398 H       
  22 H22           -1.4206    -1.3702    -1.3782 H       
  23 H23            0.6688    -0.1328    -1.4092 H       
  24 H24           -3.5613    -1.7681    -0.0536 H       
  25 H25           -5.8973    -1.8066    -0.1000 H       
  26 H26           -7.2553     0.3280     1.1553 H       
  27 H27           -7.2770     0.6059    -0.6027 H       
  28 H28           -8.4111    -1.5733     2.1270 H       
  29 H29          -10.2525    -3.1912     1.8939 H       
  30 H30          -11.1996    -3.6668    -0.3287 H       
  31 H31          -10.3058    -2.5238    -2.3181 H       
  32 H32           -8.4675    -0.9023    -2.0844 H       
@<TRIPOS>BOND
   1    1    2 ar
   2    1    7 1
   3    1    6 ar
   4    2    3 ar
   5    2    9 1
   6    3    4 ar
   7    3   21 1
   8    4    5 ar
   9    4   10 1
  10    5    6 ar
  11    5   22 1
  12    6   23 1
  13    7    8 2
  14    8    9 1
  15   10   11 am
  16   10   24 1
  17   11   12 am
  18   11   13 2
  19   12   14 1
  20   12   25 1
  21   14   15 1
  22   14   26 1
  23   14   27 1
  24   15   16 ar
  25   15   20 ar
  26   16   17 ar
  27   16   28 1
  28   17   18 ar
  29   17   29 1
  30   18   19 ar
  31   18   30 1
  32   19   20 ar
  33   19   31 1
  34   20   32 1

#	End of record

