#	Name: ASD01890064
#	Creating user name:	WinNT
#	Creation time:	15. 06. 2019 19:50

#	Modifying user name:	WinNT
#	Modification time:	15. 06. 2019 19:50

#	Program:	/corina/corina34_cracker 3.40 0067  02.08.2006

@<TRIPOS>MOLECULE
ASD01890064
  51   52    0    0    0
SMALL
NO_CHARGES


@<TRIPOS>ATOM
   1 C1            -0.0184     1.5028     0.0103 C.2     
   2 C2             0.0021    -0.0041     0.0020 C.3     
   3 C3            -0.7132    -0.5094    -1.2244 C.2     
   4 O4             1.0197     2.1211     0.0037 O.2     
   5 O5            -1.1898     2.1580     0.0194 O.3     
   6 O6            -1.1905     0.2737    -2.0110 O.2     
   7 O7            -0.8199    -1.8295    -1.4429 O.3     
   8 C8             1.4513    -0.4944    -0.0145 C.3     
   9 C9             2.1775     0.0187     1.2307 C.3     
  10 C10            3.6341    -0.3599     1.1544 C.2     
  11 O11            4.0504    -0.9789     0.1984 O.2     
  12 C12            4.5510     0.0216     2.2395 C.ar    
  13 C13            5.9039    -0.3281     2.1721 C.ar    
  14 C14            6.7571     0.0331     3.1922 C.ar    
  15 C15            6.2779     0.7405     4.2831 C.ar    
  16 C16            4.9390     1.0899     4.3569 C.ar    
  17 C17            4.0754     0.7409     3.3412 C.ar    
  18 Cl18           7.3599     1.1907     5.5637 Cl      
  19 C19            1.4717    -2.0012    -0.0227 C.ar    
  20 C20            2.0698    -2.6784    -1.0691 C.ar    
  21 C21            2.0889    -4.0603    -1.0773 C.ar    
  22 C22            1.5092    -4.7660    -0.0379 C.ar    
  23 C23            0.9108    -4.0878     1.0090 C.ar    
  24 C24            0.8974    -2.7057     1.0188 C.ar    
  25 Cl25           1.5323    -6.5018    -0.0478 Cl      
  26 C26           -1.1335     3.6089     0.0270 C.3     
  27 C27           -2.5551     4.1744     0.0369 C.3     
  28 C28           -1.5220    -2.2441    -2.6444 C.3     
  29 C29           -1.5419    -3.7720    -2.7217 C.3     
  30 H30           -0.4983    -0.3791     0.8948 H       
  31 H31            1.9516    -0.1193    -0.9073 H       
  32 H32            2.0863     1.1036     1.2833 H       
  33 H33            1.7324    -0.4269     2.1203 H       
  34 H34            6.2786    -0.8801     1.3228 H       
  35 H35            7.8018    -0.2362     3.1415 H       
  36 H36            4.5723     1.6410     5.2102 H       
  37 H37            3.0330     1.0177     3.3978 H       
  38 H38            2.5219    -2.1274    -1.8805 H       
  39 H39            2.5558    -4.5892    -1.8949 H       
  40 H40            0.4582    -4.6381     1.8206 H       
  41 H41            0.4342    -2.1761     1.8382 H       
  42 H42           -0.6017     3.9472     0.9164 H       
  43 H43           -0.6102     3.9569    -0.8636 H       
  44 H44           -2.5128     5.2636     0.0426 H       
  45 H45           -3.0869     3.8361    -0.8525 H       
  46 H46           -3.0784     3.8265     0.9275 H       
  47 H47           -2.5447    -1.8684    -2.6155 H       
  48 H48           -1.0120    -1.8426    -3.5200 H       
  49 H49           -0.5192    -4.1478    -2.7506 H       
  50 H50           -2.0519    -4.1735    -1.8461 H       
  51 H51           -2.0690    -4.0833    -3.6236 H       
@<TRIPOS>BOND
   1    1    2 1
   2    1    4 2
   3    1    5 1
   4    2    3 1
   5    2    8 1
   6    2   30 1
   7    3    6 2
   8    3    7 1
   9    5   26 1
  10    7   28 1
  11    8    9 1
  12    8   19 1
  13    8   31 1
  14    9   10 1
  15    9   32 1
  16    9   33 1
  17   10   11 2
  18   10   12 1
  19   12   13 ar
  20   12   17 ar
  21   13   14 ar
  22   13   34 1
  23   14   15 ar
  24   14   35 1
  25   15   16 ar
  26   15   18 1
  27   16   17 ar
  28   16   36 1
  29   17   37 1
  30   19   20 ar
  31   19   24 ar
  32   20   21 ar
  33   20   38 1
  34   21   22 ar
  35   21   39 1
  36   22   23 ar
  37   22   25 1
  38   23   24 ar
  39   23   40 1
  40   24   41 1
  41   26   27 1
  42   26   42 1
  43   26   43 1
  44   27   44 1
  45   27   45 1
  46   27   46 1
  47   28   29 1
  48   28   47 1
  49   28   48 1
  50   29   49 1
  51   29   50 1
  52   29   51 1

#	End of record

