#	Name: ASD01910303
#	Creating user name:	WinNT
#	Creation time:	15. 06. 2019 19:55

#	Modifying user name:	WinNT
#	Modification time:	15. 06. 2019 19:55

#	Program:	/corina/corina34_cracker 3.40 0067  02.08.2006

@<TRIPOS>MOLECULE
ASD01910303
  46   49    0    0    0
SMALL
NO_CHARGES


@<TRIPOS>ATOM
   1 C1             0.0269     1.3039    -0.0645 C.ar    
   2 C2             2.4537    -0.0363    -0.0778 C.ar    
   3 C3             2.4266     1.3564    -0.0676 C.ar    
   4 C4             1.2042     2.0244    -0.0608 C.ar    
   5 C5             3.6961     2.1262    -0.0632 C.2     
   6 N6             3.8212     3.4383    -0.0538 N.2     
   7 N7             5.0799     3.7145    -0.0530 N.pl3   
   8 N8             5.7562     2.6192    -0.0615 N.2     
   9 N9             4.9381     1.6219    -0.0621 N.2     
  10 C10            5.6516     5.0633    -0.0441 C.3     
  11 C11            6.5161     5.2436     1.2058 C.3     
  12 C12            7.0872     6.6631     1.2327 C.3     
  13 C13            7.9700     6.8775    -0.0008 C.3     
  14 N14            7.1860     6.5652    -1.2035 N.am    
  15 C15            6.5181     5.2596    -1.2921 C.3     
  16 C16            7.0815     7.4595    -2.2064 C.2     
  17 C17            7.6794     8.8028    -2.0636 C.ar    
  18 O18            6.4952     7.1607    -3.2286 O.2     
  19 C19            9.0309     8.9472    -1.7493 C.ar    
  20 N20            9.5653    10.1441    -1.6216 N.ar    
  21 C21            8.8541    11.2459    -1.7840 C.ar    
  22 C22            7.5040    11.1857    -2.0982 C.ar    
  23 C23            6.8992     9.9525    -2.2474 C.ar    
  24 F24            9.4508    12.4496    -1.6414 F       
  25 C25            0.0594    -0.0788    -0.0750 C.ar    
  26 C26            1.2704    -0.7470    -0.0814 C.ar    
  27 C27            5.4353     9.8463    -2.5889 C.3     
  28 H28           -0.9214     1.8207    -0.0547 H       
  29 H29            3.3987    -0.5589    -0.0835 H       
  30 H30            1.1777     3.1040    -0.0529 H       
  31 H31            4.8475     5.7992    -0.0395 H       
  32 H32            5.9073     5.0802     2.0950 H       
  33 H33            7.3340     4.5233     1.1885 H       
  34 H34            6.2700     7.3843     1.2250 H       
  35 H35            7.6838     6.7982     2.1349 H       
  36 H36            8.2991     7.9160    -0.0386 H       
  37 H37            8.8370     6.2189     0.0514 H       
  38 H38            7.2667     4.4691    -1.3452 H       
  39 H39            5.8892     5.2305    -2.1819 H       
  40 H40            9.6445     8.0695    -1.6090 H       
  41 H41            6.9329    12.0930    -2.2285 H       
  42 H42           -0.8641    -0.6388    -0.0779 H       
  43 H43            1.2903    -1.8268    -0.0896 H       
  44 H44            5.3083     9.9157    -3.6692 H       
  45 H45            5.0490     8.8892    -2.2383 H       
  46 H46            4.8898    10.6571    -2.1061 H       
@<TRIPOS>BOND
   1    1   25 ar
   2    1    4 ar
   3    1   28 1
   4    2    3 ar
   5    2   26 ar
   6    2   29 1
   7    3    4 ar
   8    3    5 1
   9    4   30 1
  10    5    6 2
  11    5    9 1
  12    6    7 1
  13    7    8 1
  14    7   10 1
  15    8    9 2
  16   10   11 1
  17   10   15 1
  18   10   31 1
  19   11   12 1
  20   11   32 1
  21   11   33 1
  22   12   13 1
  23   12   34 1
  24   12   35 1
  25   13   14 1
  26   13   36 1
  27   13   37 1
  28   14   15 1
  29   14   16 am
  30   15   38 1
  31   15   39 1
  32   16   17 1
  33   16   18 2
  34   17   19 ar
  35   17   23 ar
  36   19   20 ar
  37   19   40 1
  38   20   21 ar
  39   21   22 ar
  40   21   24 1
  41   22   23 ar
  42   22   41 1
  43   23   27 1
  44   25   26 ar
  45   25   42 1
  46   26   43 1
  47   27   44 1
  48   27   45 1
  49   27   46 1

#	End of record

