#	Name: ASD01410408
#	Creating user name:	WinNT
#	Creation time:	15. 06. 2019 19:17

#	Modifying user name:	WinNT
#	Modification time:	15. 06. 2019 19:17

#	Program:	/corina/corina34_cracker 3.40 0067  02.08.2006

@<TRIPOS>MOLECULE
ASD01410408
  36   38    0    0    0
SMALL
NO_CHARGES


@<TRIPOS>ATOM
   1 S1            -0.0146     1.7572    -0.0974 S.3     
   2 C2            -0.0020     0.0035     0.1575 C.2     
   3 N3             1.2727    -0.3522     0.3538 N.am    
   4 C4             2.2188     0.5717     0.3277 C.2     
   5 C5             1.7424     1.9383     0.0761 C.2     
   6 S6            -1.3616    -1.0369     0.1540 S.2     
   7 O7             3.3946     0.3096     0.4996 O.2     
   8 N8             1.6030    -1.6938     0.5857 N.am    
   9 S9             1.9590    -2.6909    -0.6876 S.o2    
  10 O10            2.3940    -3.9210    -0.1246 O.2     
  11 O11            0.8668    -2.5930    -1.5915 O.2     
  12 C12            3.3534    -2.0020    -1.5157 C.ar    
  13 C13            4.6318    -2.3679    -1.1379 C.ar    
  14 C14            5.7258    -1.8274    -1.7875 C.ar    
  15 C15            5.5413    -0.9214    -2.8151 C.ar    
  16 C16            4.2629    -0.5562    -3.1935 C.ar    
  17 C17            3.1688    -1.1000    -2.5468 C.ar    
  18 C18            2.4762     3.0762    -0.0051 C.2     
  19 C19           -0.1485     5.7453     0.2267 C.ar    
  20 C20            0.5367     6.8384    -0.2853 C.ar    
  21 C21            0.4763     4.5183     0.3206 C.ar    
  22 C22            1.8032     4.3792    -0.1020 C.ar    
  23 C23            2.4864     5.4866    -0.6169 C.ar    
  24 C24            1.8498     6.7063    -0.7048 C.ar    
  25 Cl25          -0.2563     8.3783    -0.4007 Cl      
  26 F26           -1.4276     5.8840     0.6389 F       
  27 H27            1.6233    -2.0386     1.4921 H       
  28 H28            4.7759    -3.0757    -0.3350 H       
  29 H29            6.7246    -2.1127    -1.4919 H       
  30 H30            6.3960    -0.4986    -3.3222 H       
  31 H31            4.1188     0.1519    -3.9961 H       
  32 H32            2.1699    -0.8176    -2.8448 H       
  33 H33            3.5549     3.0248     0.0016 H       
  34 H34           -0.0571     3.6681     0.7193 H       
  35 H35            3.5104     5.3859    -0.9451 H       
  36 H36            2.3766     7.5611    -1.1025 H       
@<TRIPOS>BOND
   1    1    2 1
   2    1    5 1
   3    2    3 am
   4    2    6 2
   5    3    4 am
   6    3    8 1
   7    4    5 1
   8    4    7 2
   9    5   18 2
  10    8    9 am
  11    8   27 1
  12    9   10 2
  13    9   11 2
  14    9   12 1
  15   12   13 ar
  16   12   17 ar
  17   13   14 ar
  18   13   28 1
  19   14   15 ar
  20   14   29 1
  21   15   16 ar
  22   15   30 1
  23   16   17 ar
  24   16   31 1
  25   17   32 1
  26   18   22 1
  27   18   33 1
  28   19   20 ar
  29   19   21 ar
  30   19   26 1
  31   20   24 ar
  32   20   25 1
  33   21   22 ar
  34   21   34 1
  35   22   23 ar
  36   23   24 ar
  37   23   35 1
  38   24   36 1

#	End of record

