#	Name: ASD03090074
#	Creating user name:	WinNT
#	Creation time:	15. 06. 2019 20:28

#	Modifying user name:	WinNT
#	Modification time:	15. 06. 2019 20:28

#	Program:	/corina/corina34_cracker 3.40 0067  02.08.2006

@<TRIPOS>MOLECULE
ASD03090074
  40   42    0    0    0
SMALL
NO_CHARGES


@<TRIPOS>ATOM
   1 C1             0.0127     1.4864    -0.8641 C.ar    
   2 C2             0.0481     0.1255    -1.0957 C.ar    
   3 C3             1.2460    -0.4939    -1.4070 C.ar    
   4 C4             2.4114     0.2483    -1.4870 C.ar    
   5 C5             2.3818     1.6095    -1.2568 C.ar    
   6 C6             1.1808     2.2339    -0.9442 C.ar    
   7 N7             1.1478     3.6117    -0.7111 N.pl3   
   8 Cl8            1.2869    -2.2050    -1.6970 Cl      
   9 C9            -0.0305     4.2226    -0.4047 C.2     
  10 C10           -0.0455     5.5444    -0.0629 C.2     
  11 C11            1.2165     6.2628     0.1443 C.2     
  12 O12            2.2717     5.6564     0.1281 O.2     
  13 N13            1.2076     7.5943     0.3527 N.am    
  14 C14            2.4143     8.2951     0.4503 C.ar    
  15 C15            2.5192     9.5895    -0.0415 C.ar    
  16 N16            3.6547    10.2529     0.0487 N.ar    
  17 C17            4.7271     9.7225     0.6029 C.ar    
  18 C18            4.7011     8.4383     1.1149 C.ar    
  19 C19            3.5269     7.7068     1.0473 C.ar    
  20 C20           -1.3301     6.2497     0.0978 C.2     
  21 O21           -2.2419     6.4978    -0.8599 O.3     
  22 N22           -3.1948     7.0961    -0.4178 N.2     
  23 C23           -3.0729     7.3328     0.8585 C.2     
  24 C24           -1.8401     6.7803     1.2550 C.2     
  25 C25           -4.0615     8.0527     1.7390 C.3     
  26 H26           -0.9231     1.9698    -0.6252 H       
  27 H27           -0.8598    -0.4562    -1.0336 H       
  28 H28            3.3449    -0.2378    -1.7294 H       
  29 H29            3.2916     2.1882    -1.3194 H       
  30 H30            1.9640     4.1329    -0.7676 H       
  31 H31           -0.9528     3.6614    -0.4320 H       
  32 H32            0.3644     8.0667     0.4350 H       
  33 H33            1.6619    10.0572    -0.5027 H       
  34 H34            5.6387    10.2991     0.6575 H       
  35 H35            5.5847     8.0124     1.5667 H       
  36 H36            3.4778     6.7017     1.4395 H       
  37 H37           -1.3966     6.7798     2.2397 H       
  38 H38           -4.7629     7.3333     2.1615 H       
  39 H39           -3.5295     8.5579     2.5452 H       
  40 H40           -4.6071     8.7877     1.1473 H       
@<TRIPOS>BOND
   1    1    2 ar
   2    1    6 ar
   3    1   26 1
   4    2    3 ar
   5    2   27 1
   6    3    4 ar
   7    3    8 1
   8    4    5 ar
   9    4   28 1
  10    5    6 ar
  11    5   29 1
  12    6    7 1
  13    7    9 1
  14    7   30 1
  15    9   10 2
  16    9   31 1
  17   10   11 1
  18   10   20 1
  19   11   12 2
  20   11   13 am
  21   13   14 1
  22   13   32 1
  23   14   15 ar
  24   14   19 ar
  25   15   16 ar
  26   15   33 1
  27   16   17 ar
  28   17   18 ar
  29   17   34 1
  30   18   19 ar
  31   18   35 1
  32   19   36 1
  33   20   21 1
  34   20   24 2
  35   21   22 1
  36   22   23 2
  37   23   24 1
  38   23   25 1
  39   24   37 1
  40   25   38 1
  41   25   39 1
  42   25   40 1

#	End of record

