#	Name: ASD01151058
#	Creating user name:	WinNT
#	Creation time:	15. 06. 2019 19:05

#	Modifying user name:	WinNT
#	Modification time:	15. 06. 2019 19:05

#	Program:	/corina/corina34_cracker 3.40 0067  02.08.2006

@<TRIPOS>MOLECULE
ASD01151058
  55   57    0    0    0
SMALL
NO_CHARGES


@<TRIPOS>ATOM
   1 O1            -0.9857     1.2556     3.0737 O.2     
   2 C2            -0.9288     1.1548     1.8636 C.2     
   3 C3             0.3628     0.8630     1.2062 C.ar    
   4 C4             0.4308     0.7467    -0.1832 C.ar    
   5 C5             1.6379     0.4747    -0.7947 C.ar    
   6 C6             2.7822     0.3166    -0.0358 C.ar    
   7 C7             2.7251     0.4305     1.3485 C.ar    
   8 C8             1.5187     0.7087     1.9718 C.ar    
   9 N9             3.8860     0.2691     2.1120 N.am    
  10 C10            3.9231    -0.6515     3.0956 C.2     
  11 O11            2.9244    -1.2876     3.3707 O.2     
  12 C12            5.1781    -0.8876     3.8399 C.ar    
  13 C13            5.2200    -1.8404     4.8592 C.ar    
  14 C14            6.3947    -2.0562     5.5497 C.ar    
  15 C15            7.5297    -1.3307     5.2337 C.ar    
  16 C16            7.4950    -0.3849     4.2245 C.ar    
  17 C17            6.3282    -0.1630     3.5227 C.ar    
  18 N18           -2.0441     1.3035     1.1218 N.am    
  19 C19           -3.2651     1.5865     1.7434 C.ar    
  20 C20           -4.1011     2.5644     1.2218 C.ar    
  21 C21           -3.6945     3.3230    -0.0152 C.3     
  22 C22           -5.3064     2.8413     1.8377 C.ar    
  23 C23           -5.6810     2.1458     2.9724 C.ar    
  24 C24           -4.8511     1.1708     3.4953 C.ar    
  25 C25           -3.6465     0.8851     2.8814 C.ar    
  26 Cl26          -2.6051    -0.3389     3.5379 Cl      
  27 C27           -5.2635     0.4153     4.7323 C.3     
  28 C28           -6.9964     2.4513     3.6413 C.3     
  29 C29           -6.7783     3.4871     4.7461 C.3     
  30 F30           -6.2765     4.6671     4.1865 F       
  31 F31           -7.9954     3.7536     5.3823 F       
  32 F32           -5.8637     2.9878     5.6795 F       
  33 C33           -7.9774     3.0074     2.6073 C.3     
  34 F34           -8.0336     2.1452     1.5069 F       
  35 F35           -9.2488     3.1145     3.1811 F       
  36 F36           -7.5469     4.2708     2.1883 F       
  37 F37           -7.5199     1.2793     4.1977 F       
  38 H38           -0.4611     0.8692    -0.7797 H       
  39 H39            1.6885     0.3848    -1.8697 H       
  40 H40            3.7238     0.1036    -0.5199 H       
  41 H41            1.4723     0.7978     3.0471 H       
  42 H42            4.6643     0.8198     1.9335 H       
  43 H43            4.3346    -2.4071     5.1071 H       
  44 H44            6.4283    -2.7928     6.3388 H       
  45 H45            8.4467    -1.5033     5.7775 H       
  46 H46            8.3844     0.1783     3.9830 H       
  47 H47            6.3026     0.5754     2.7349 H       
  48 H48           -2.0003     1.2143     0.1569 H       
  49 H49           -4.0584     2.7988    -0.8989 H       
  50 H50           -4.1234     4.3246     0.0154 H       
  51 H51           -2.6076     3.3942    -0.0569 H       
  52 H52           -5.9568     3.6022     1.4324 H       
  53 H53           -5.7611    -0.5105     4.4436 H       
  54 H54           -4.3803     0.1828     5.3273 H       
  55 H55           -5.9472     1.0272     5.3207 H       
@<TRIPOS>BOND
   1    1    2 2
   2    2    3 1
   3    2   18 am
   4    3    4 ar
   5    3    8 ar
   6    4    5 ar
   7    4   38 1
   8    5    6 ar
   9    5   39 1
  10    6    7 ar
  11    6   40 1
  12    7    8 ar
  13    7    9 1
  14    8   41 1
  15    9   10 am
  16    9   42 1
  17   10   11 2
  18   10   12 1
  19   12   13 ar
  20   12   17 ar
  21   13   14 ar
  22   13   43 1
  23   14   15 ar
  24   14   44 1
  25   15   16 ar
  26   15   45 1
  27   16   17 ar
  28   16   46 1
  29   17   47 1
  30   18   19 1
  31   18   48 1
  32   19   20 ar
  33   19   25 ar
  34   20   21 1
  35   20   22 ar
  36   21   49 1
  37   21   50 1
  38   21   51 1
  39   22   23 ar
  40   22   52 1
  41   23   24 ar
  42   23   28 1
  43   24   25 ar
  44   24   27 1
  45   25   26 1
  46   27   53 1
  47   27   54 1
  48   27   55 1
  49   28   29 1
  50   28   33 1
  51   28   37 1
  52   29   30 1
  53   29   31 1
  54   29   32 1
  55   33   34 1
  56   33   35 1
  57   33   36 1

#	End of record

