#	Name: ASD00710002
#	Creating user name:	WinNT
#	Creation time:	15. 06. 2019 18:37

#	Modifying user name:	WinNT
#	Modification time:	15. 06. 2019 18:37

#	Program:	/corina/corina34_cracker 3.40 0067  02.08.2006

@<TRIPOS>MOLECULE
ASD00710002
  22   23    0    0    0
SMALL
NO_CHARGES


@<TRIPOS>ATOM
   1 N1            -0.0165     1.3641     0.0095 N.pl3   
   2 C2             0.0021    -0.0041     0.0020 C.2     
   3 C3             1.2701    -0.4444    -0.0124 C.2     
   4 C4             2.1342     0.7385    -0.0143 C.ar    
   5 C5             3.5172     0.9301    -0.0265 C.ar    
   6 C6             4.0264     2.1979    -0.0246 C.ar    
   7 C7             3.1795     3.2979    -0.0106 C.ar    
   8 C8             1.8122     3.1318     0.0020 C.ar    
   9 C9             1.2718     1.8497    -0.0002 C.ar    
  10 C10            2.0003    -2.3331     1.3860 C.2     
  11 C11            1.7194    -1.8828    -0.0245 C.3     
  12 O12            1.8510    -1.5649     2.3065 O.2     
  13 O13            2.4165    -3.5877     1.6196 O.3     
  14 H14           -0.8179     1.9105     0.0165 H       
  15 H15           -0.8737    -0.6360     0.0073 H       
  16 H16            4.1822     0.0791    -0.0371 H       
  17 H17            5.0962     2.3455    -0.0336 H       
  18 H18            3.5970     4.2940    -0.0092 H       
  19 H19            1.1617     3.9939     0.0132 H       
  20 H20            0.9348    -2.5050    -0.4550 H       
  21 H21            2.6259    -1.9753    -0.6227 H       
  22 H22            2.5838    -3.8304     2.5406 H       
@<TRIPOS>BOND
   1    1    2 1
   2    1    9 1
   3    1   14 1
   4    2    3 2
   5    2   15 1
   6    3    4 1
   7    3   11 1
   8    4    5 ar
   9    4    9 ar
  10    5    6 ar
  11    5   16 1
  12    6    7 ar
  13    6   17 1
  14    7    8 ar
  15    7   18 1
  16    8    9 ar
  17    8   19 1
  18   10   11 1
  19   10   12 2
  20   10   13 1
  21   11   20 1
  22   11   21 1
  23   13   22 1

#	End of record

