#	Name: ASD07930679
#	Creating user name:	WinNT
#	Creation time:	15. 06. 2019 21:13

#	Modifying user name:	WinNT
#	Modification time:	15. 06. 2019 21:13

#	Program:	/corina/corina34_cracker 3.40 0067  02.08.2006

@<TRIPOS>MOLECULE
ASD07930679
  33   35    0    0    0
SMALL
NO_CHARGES


@<TRIPOS>ATOM
   1 S1            -0.0218     1.7568     0.0117 S.3     
   2 C2             0.0021    -0.0041     0.0020 C.2     
   3 N3             1.0039    -0.6777    -0.4129 N.2     
   4 C4             2.2686    -0.2447    -0.9571 C.3     
   5 C5             2.4022     1.2744    -1.1331 C.3     
   6 C6             1.7645     2.0590    -0.0037 C.3     
   7 O7             1.9952     0.3585    -3.2710 O.3     
   8 C8             2.3528    -0.7412    -2.4245 C.3     
   9 C9             1.6712     1.5094    -2.4705 C.3     
  10 N10           -1.1039    -0.6814     0.4608 N.pl3   
  11 C11            2.1831     2.7861    -3.1406 C.3     
  12 C12            3.4090    -0.8012    -0.1442 C.ar    
  13 C13            4.7168    -0.5201    -0.5026 C.ar    
  14 C14            5.7638    -1.0318     0.2447 C.ar    
  15 C15            5.5032    -1.8227     1.3478 C.ar    
  16 C16            4.1968    -2.1031     1.7051 C.ar    
  17 C17            3.1499    -1.5874     0.9621 C.ar    
  18 F18            4.9707     0.2527    -1.5812 F       
  19 Br19           3.8414    -3.1858     3.2141 Br      
  20 H20            3.4538     1.5459    -1.2250 H       
  21 H21            1.9515     3.1229    -0.1499 H       
  22 H22            2.1946     1.7422     0.9464 H       
  23 H23            3.3693    -1.0652    -2.6480 H       
  24 H24            1.6576    -1.5668    -2.5766 H       
  25 H25            0.5948     1.5692    -2.3096 H       
  26 H26           -1.8759    -0.1890     0.7809 H       
  27 H27           -1.1118    -1.6513     0.4642 H       
  28 H28            3.2520     2.6925    -3.3320 H       
  29 H29            1.6571     2.9376    -4.0833 H       
  30 H30            2.0046     3.6377    -2.4841 H       
  31 H31            6.7839    -0.8133    -0.0344 H       
  32 H32            6.3199    -2.2222     1.9307 H       
  33 H33            2.1300    -1.8027     1.2444 H       
@<TRIPOS>BOND
   1    1    2 1
   2    1    6 1
   3    2    3 2
   4    2   10 1
   5    3    4 1
   6    4    8 1
   7    4   12 1
   8    4    5 1
   9    5    6 1
  10    5    9 1
  11    5   20 1
  12    6   21 1
  13    6   22 1
  14    7    8 1
  15    7    9 1
  16    8   23 1
  17    8   24 1
  18    9   11 1
  19    9   25 1
  20   10   26 1
  21   10   27 1
  22   11   28 1
  23   11   29 1
  24   11   30 1
  25   12   13 ar
  26   12   17 ar
  27   13   14 ar
  28   13   18 1
  29   14   15 ar
  30   14   31 1
  31   15   16 ar
  32   15   32 1
  33   16   17 ar
  34   16   19 1
  35   17   33 1

#	End of record

