#	Name: ASD01040010
#	Creating user name:	WinNT
#	Creation time:	15. 06. 2019 18:58

#	Modifying user name:	WinNT
#	Modification time:	15. 06. 2019 18:58

#	Program:	/corina/corina34_cracker 3.40 0067  02.08.2006

@<TRIPOS>MOLECULE
ASD01040010
  59   62    0    0    0
SMALL
NO_CHARGES


@<TRIPOS>ATOM
   1 C1             0.2125    -0.9060    -0.5916 C.3     
   2 C2            -0.9115     0.1318    -0.6099 C.3     
   3 C3            -2.2345    -0.5568    -0.3938 C.2     
   4 C4            -2.9808    -0.9410    -1.4588 C.2     
   5 C5            -2.5561    -0.5789    -2.8289 C.ar    
   6 C6            -2.1306    -1.5703    -3.7146 C.ar    
   7 C7            -1.7362    -1.2290    -4.9905 C.ar    
   8 C8            -1.7616     0.0993    -5.3952 C.ar    
   9 O9            -1.3725     0.4317    -6.6537 O.3     
  10 C10           -2.1843     1.0885    -4.5169 C.ar    
  11 C11           -2.5853     0.7545    -3.2411 C.ar    
  12 C12           -4.2197    -1.7223    -1.2506 C.ar    
  13 C13           -5.3227    -1.1330    -0.6304 C.ar    
  14 C14           -6.4754    -1.8640    -0.4386 C.ar    
  15 C15           -6.5402    -3.1854    -0.8611 C.ar    
  16 O16           -7.6779    -3.9029    -0.6699 O.3     
  17 C17           -5.4450    -3.7752    -1.4788 C.ar    
  18 C18           -4.2906    -3.0490    -1.6789 C.ar    
  19 C19           -2.7161    -0.8121     0.9720 C.ar    
  20 C20           -2.8250    -2.1244     1.4448 C.ar    
  21 C21           -3.2772    -2.3599     2.7266 C.ar    
  22 C22           -3.6241    -1.3035     3.5480 C.ar    
  23 C23           -3.5205     0.0055     3.0889 C.ar    
  24 N24           -3.8732     1.0687     3.9242 N.pl3   
  25 C25           -4.3773     2.2506     3.3756 C.ar    
  26 C26           -5.1029     2.2145     2.1912 C.ar    
  27 C27           -5.5996     3.3845     1.6518 C.ar    
  28 C28           -5.3752     4.5915     2.2889 C.ar    
  29 C29           -4.6536     4.6310     3.4677 C.ar    
  30 C30           -4.4121     5.9485     4.1584 C.3     
  31 C31           -4.1591     3.4638     4.0160 C.ar    
  32 C32           -3.0617     0.2557     1.8055 C.ar    
  33 H33            1.1581    -0.4217    -0.8354 H       
  34 H34            0.2783    -1.3530     0.4003 H       
  35 H35            0.0020    -1.6827    -1.3269 H       
  36 H36           -0.7469     0.8598     0.1844 H       
  37 H37           -0.9202     0.6411    -1.5735 H       
  38 H38           -2.1102    -2.6034    -3.4005 H       
  39 H39           -1.4066    -1.9955    -5.6763 H       
  40 H40           -2.0902     0.4256    -7.3018 H       
  41 H41           -2.2024     2.1204    -4.8350 H       
  42 H42           -2.9142     1.5243    -2.5587 H       
  43 H43           -5.2729    -0.1056    -0.3010 H       
  44 H44           -7.3293    -1.4088     0.0411 H       
  45 H45           -8.3074    -3.8444    -1.4015 H       
  46 H46           -5.4991    -4.8030    -1.8060 H       
  47 H47           -3.4407    -3.5071    -2.1628 H       
  48 H48           -2.5554    -2.9527     0.8063 H       
  49 H49           -3.3610    -3.3736     3.0897 H       
  50 H50           -3.9774    -1.4953     4.5504 H       
  51 H51           -3.7681     0.9862     4.8850 H       
  52 H52           -5.2779     1.2724     1.6929 H       
  53 H53           -6.1637     3.3571     0.7312 H       
  54 H54           -5.7608     5.5057     1.8623 H       
  55 H55           -5.2224     6.1444     4.8607 H       
  56 H56           -3.4657     5.9078     4.6977 H       
  57 H57           -4.3736     6.7460     3.4165 H       
  58 H58           -3.5956     3.4954     4.9368 H       
  59 H59           -2.9802     1.2713     1.4474 H       
@<TRIPOS>BOND
   1    1    2 1
   2    1   33 1
   3    1   34 1
   4    1   35 1
   5    2   36 1
   6    2   37 1
   7    2    3 1
   8    3    4 2
   9    3   19 1
  10    4   12 1
  11    4    5 1
  12    5    6 ar
  13    5   11 ar
  14    6   38 1
  15    6    7 ar
  16    7   39 1
  17    7    8 ar
  18    8   10 ar
  19    8    9 1
  20    9   40 1
  21   10   11 ar
  22   10   41 1
  23   11   42 1
  24   12   18 ar
  25   12   13 ar
  26   13   14 ar
  27   13   43 1
  28   14   15 ar
  29   14   44 1
  30   15   17 ar
  31   15   16 1
  32   16   45 1
  33   17   46 1
  34   17   18 ar
  35   18   47 1
  36   19   20 ar
  37   19   32 ar
  38   20   48 1
  39   20   21 ar
  40   21   49 1
  41   21   22 ar
  42   22   23 ar
  43   22   50 1
  44   23   32 ar
  45   23   24 1
  46   24   51 1
  47   24   25 1
  48   25   26 ar
  49   25   31 ar
  50   26   52 1
  51   26   27 ar
  52   27   53 1
  53   27   28 ar
  54   28   29 ar
  55   28   54 1
  56   29   31 ar
  57   29   30 1
  58   30   55 1
  59   30   56 1
  60   30   57 1
  61   31   58 1
  62   32   59 1

#	End of record

