#	Name: ASD01811399
#	Creating user name:	WinNT
#	Creation time:	15. 06. 2019 19:26

#	Modifying user name:	WinNT
#	Modification time:	15. 06. 2019 19:26

#	Program:	/corina/corina34_cracker 3.40 0067  02.08.2006

@<TRIPOS>MOLECULE
ASD01811399
  20   20    0    0    0
SMALL
NO_CHARGES


@<TRIPOS>ATOM
   1 N1            -0.0169     1.3963     0.0097 N.pl3   
   2 N2             0.0021    -0.0041     0.0020 N.2     
   3 C3             1.2601    -0.4006    -0.0121 C.2     
   4 C4             2.0805     0.7471    -0.0138 C.2     
   5 C5             1.2695     1.8363    -0.0002 C.2     
   6 C6             1.7277    -1.8005    -0.0237 C.2     
   7 O7             2.9180    -2.0432    -0.0359 O.2     
   8 O8             0.8345    -2.8091    -0.0206 O.3     
   9 C9            -1.2144     2.2402     0.0202 C.3     
  10 N10            1.6819     3.1663     0.0030 N.pl3   
  11 C11            1.3660    -4.1603    -0.0325 C.3     
  12 H12            3.1604     0.7575    -0.0235 H       
  13 H13           -1.5061     2.4442     1.0505 H       
  14 H14           -1.0014     3.1796    -0.4899 H       
  15 H15           -2.0268     1.7246    -0.4920 H       
  16 H16            1.0233     3.8783     0.0131 H       
  17 H17            2.6279     3.3808    -0.0049 H       
  18 H18            1.9689    -4.3057    -0.9289 H       
  19 H19            1.9853    -4.3149     0.8510 H       
  20 H20            0.5426    -4.8746    -0.0286 H       
@<TRIPOS>BOND
   1    1    2 1
   2    1    5 1
   3    1    9 1
   4    2    3 2
   5    3    4 1
   6    3    6 1
   7    4    5 2
   8    4   12 1
   9    5   10 1
  10    6    7 2
  11    6    8 1
  12    8   11 1
  13    9   13 1
  14    9   14 1
  15    9   15 1
  16   10   16 1
  17   10   17 1
  18   11   18 1
  19   11   19 1
  20   11   20 1

#	End of record

