#	Name: ASD05420003
#	Creating user name:	WinNT
#	Creation time:	15. 06. 2019 20:59

#	Modifying user name:	WinNT
#	Modification time:	15. 06. 2019 20:59

#	Program:	/corina/corina34_cracker 3.40 0067  02.08.2006

@<TRIPOS>MOLECULE
ASD05420003
  60   65    0    0    0
SMALL
NO_CHARGES


@<TRIPOS>ATOM
   1 C1             0.4470     2.0543    -0.4521 C.ar    
   2 C2             0.2128     0.6913    -0.2224 C.ar    
   3 C3             1.3197    -0.1664    -0.0856 C.ar    
   4 C4             2.6277     0.3455    -0.0902 C.ar    
   5 C5             2.8225     1.6904    -0.3098 C.ar    
   6 C6             1.7275     2.5292    -0.4956 C.ar    
   7 C7            -1.0925     0.1572    -0.1102 C.ar    
   8 C8            -1.2915    -1.1616     0.1086 C.ar    
   9 C9            -0.2143    -2.0701     0.2149 C.ar    
  10 C10            1.1118    -1.6064     0.0767 C.ar    
  11 C11           -0.4179    -3.4358     0.4667 C.ar    
  12 C12            0.6855    -4.2456     0.5316 C.ar    
  13 C13            1.9557    -3.7219     0.3363 C.ar    
  14 N14            2.1487    -2.4395     0.0955 N.ar    
  15 N15            3.6667    -0.5500     0.1595 N.am    
  16 C16            3.5003    -1.9594    -0.2093 C.3     
  17 N17            4.4731    -2.7658     0.5321 N.ar    
  18 C18            4.4066    -2.8022     1.8486 C.ar    
  19 C19            5.3890    -3.4405    -0.1349 C.ar    
  20 C20            6.3225    -4.2126     0.5304 C.ar    
  21 C21            6.2873    -4.2714     1.9152 C.ar    
  22 C22            5.3071    -3.5518     2.5815 C.ar    
  23 S23            5.0718    -0.0283     0.8637 S.o2    
  24 C24            4.6942     0.3914     2.5328 C.ar    
  25 O25            5.9355    -1.1553     0.9189 O.2     
  26 O26            5.4196     1.1863     0.2133 O.2     
  27 C27            4.9408    -0.5170     3.5456 C.ar    
  28 C28            4.6456    -0.1903     4.8550 C.ar    
  29 C29            4.1013     1.0504     5.1533 C.ar    
  30 C30            3.8548     1.9601     4.1353 C.ar    
  31 C31            4.1570     1.6307     2.8281 C.ar    
  32 O32            3.7477    -2.1102    -1.6321 O.3     
  33 O33            5.6955    -1.1040    -1.3543 O.2     
  34 C34            4.8868    -1.5863    -2.1114 C.2     
  35 C35            5.1569    -1.5996    -3.5940 C.3     
  36 O36            3.8097     1.3740     6.4406 O.3     
  37 C37            3.2514     2.6686     6.6736 C.3     
  38 H38           -0.3842     2.7280    -0.5990 H       
  39 H39            3.8238     2.0941    -0.3383 H       
  40 H40            1.8939     3.5805    -0.6784 H       
  41 H41           -1.9445     0.8147    -0.2006 H       
  42 H42           -2.3016    -1.5312     0.2051 H       
  43 H43           -1.4117    -3.8352     0.6050 H       
  44 H44            0.5658    -5.2992     0.7367 H       
  45 H45            2.8091    -4.3821     0.3826 H       
  46 H46            3.6397    -2.2394     2.3600 H       
  47 H47            5.4097    -3.3894    -1.2135 H       
  48 H48            7.0698    -4.7635    -0.0215 H       
  49 H49            7.0040    -4.8664     2.4617 H       
  50 H50            5.2500    -3.5745     3.6597 H       
  51 H51            5.3642    -1.4828     3.3128 H       
  52 H52            4.8381    -0.9003     5.6457 H       
  53 H53            3.4311     2.9266     4.3650 H       
  54 H54            3.9653     2.3386     2.0353 H       
  55 H55            4.3215    -2.0712    -4.1113 H       
  56 H56            5.2745    -0.5765    -3.9511 H       
  57 H57            6.0702    -2.1607    -3.7918 H       
  58 H58            3.9493     3.4324     6.3306 H       
  59 H59            2.3125     2.7630     6.1280 H       
  60 H60            3.0665     2.7980     7.7400 H       
@<TRIPOS>BOND
   1    1    2 ar
   2    1    6 ar
   3    1   38 1
   4    2    3 ar
   5    2    7 ar
   6    3    4 ar
   7    3   10 ar
   8    4    5 ar
   9    4   15 1
  10    5    6 ar
  11    5   39 1
  12    6   40 1
  13    7    8 ar
  14    7   41 1
  15    8    9 ar
  16    8   42 1
  17    9   10 ar
  18    9   11 ar
  19   10   14 ar
  20   11   12 ar
  21   11   43 1
  22   12   13 ar
  23   12   44 1
  24   13   14 ar
  25   13   45 1
  26   14   16 1
  27   15   23 am
  28   15   16 1
  29   16   32 1
  30   16   17 1
  31   17   18 ar
  32   17   19 ar
  33   18   22 ar
  34   18   46 1
  35   19   20 ar
  36   19   47 1
  37   20   21 ar
  38   20   48 1
  39   21   22 ar
  40   21   49 1
  41   22   50 1
  42   23   24 1
  43   23   25 2
  44   23   26 2
  45   24   27 ar
  46   24   31 ar
  47   27   28 ar
  48   27   51 1
  49   28   29 ar
  50   28   52 1
  51   29   30 ar
  52   29   36 1
  53   30   31 ar
  54   30   53 1
  55   31   54 1
  56   32   34 1
  57   33   34 2
  58   34   35 1
  59   35   55 1
  60   35   56 1
  61   35   57 1
  62   36   37 1
  63   37   58 1
  64   37   59 1
  65   37   60 1

#	End of record

