#	Name: ASD02198044
#	Creating user name:	WinNT
#	Creation time:	15. 06. 2019 20:18

#	Modifying user name:	WinNT
#	Modification time:	15. 06. 2019 20:18

#	Program:	/corina/corina34_cracker 3.40 0067  02.08.2006

@<TRIPOS>MOLECULE
ASD02198044
  53   55    0    0    0
SMALL
NO_CHARGES


@<TRIPOS>ATOM
   1 C1            -0.0210     1.3619    -0.2531 C.2     
   2 C2             0.0018    -0.0163    -0.2060 C.2     
   3 C3            -1.1843    -0.8181    -0.2380 C.1     
   4 S4             1.5595     1.9986    -0.1966 S.3     
   5 C5             2.2728     0.3961    -0.1080 C.2     
   6 C6             1.2826    -0.5580    -0.1249 C.2     
   7 C7             3.6524     0.1284    -0.0312 C.2     
   8 O8             4.0435    -1.0153     0.1301 O.2     
   9 C9             4.6286     1.2349    -0.1462 C.ar    
  10 N10            1.5335    -1.9198    -0.0675 N.pl3   
  11 N11           -1.1646     2.1203    -0.3400 N.pl3   
  12 N12           -2.1252    -1.4541    -0.2633 N.1     
  13 C13           -1.0727     3.5818    -0.3837 C.3     
  14 C14           -3.7114     6.2592    -0.3766 C.3     
  15 N15           -2.3861     5.6440    -0.5232 N.3     
  16 C16           -2.4783     4.1785    -0.4793 C.3     
  17 C17            4.8984     1.8045    -1.3910 C.ar    
  18 C18            5.8092     2.8362    -1.4914 C.ar    
  19 C19            6.4542     3.3059    -0.3613 C.ar    
  20 C20            6.1910     2.7452     0.8762 C.ar    
  21 C21            5.2787     1.7169     0.9908 C.ar    
  22 C22            7.4481     4.4326    -0.4784 C.3     
  23 C23            4.1971     1.2938    -2.6231 C.3     
  24 C24           -3.5619     7.7793    -0.2808 C.3     
  25 C25           -2.8738     8.3003    -1.5455 C.3     
  26 C26           -1.5168     7.6082    -1.7008 C.3     
  27 C27           -1.7256     6.0931    -1.7555 C.3     
  28 H28            2.4464    -2.2429    -0.0121 H       
  29 H29            0.7961    -2.5499    -0.0827 H       
  30 H30           -2.0322     1.6877    -0.3723 H       
  31 H31           -0.5857     3.9425     0.5222 H       
  32 H32           -0.4900     3.8833    -1.2542 H       
  33 H33           -4.3259     6.0085    -1.2413 H       
  34 H34           -4.1881     5.8834     0.5288 H       
  35 H35           -2.9653     3.8178    -1.3853 H       
  36 H36           -3.0610     3.8770     0.3911 H       
  37 H37            6.0192     3.2778    -2.4544 H       
  38 H38            6.6978     3.1163     1.7547 H       
  39 H39            5.0739     1.2803     1.9571 H       
  40 H40            6.9327     5.3856    -0.3589 H       
  41 H41            8.2067     4.3300     0.2975 H       
  42 H42            7.9237     4.3972    -1.4585 H       
  43 H43            3.2301     1.7871    -2.7216 H       
  44 H44            4.8051     1.5075    -3.5022 H       
  45 H45            4.0487     0.2174    -2.5369 H       
  46 H46           -4.5468     8.2367    -0.1876 H       
  47 H47           -2.9590     8.0313     0.5916 H       
  48 H48           -3.4952     8.0827    -2.4142 H       
  49 H49           -2.7261     9.3770    -1.4627 H       
  50 H50           -1.0407     7.9434    -2.6222 H       
  51 H51           -0.8817     7.8576    -0.8508 H       
  52 H52           -0.7600     5.5966    -1.8516 H       
  53 H53           -2.3494     5.8432    -2.6137 H       
@<TRIPOS>BOND
   1    1    2 2
   2    1    4 1
   3    1   11 1
   4    2    3 1
   5    2    6 1
   6    3   12 3
   7    4    5 1
   8    5    6 2
   9    5    7 1
  10    6   10 1
  11    7    8 2
  12    7    9 1
  13    9   17 ar
  14    9   21 ar
  15   10   28 1
  16   10   29 1
  17   11   13 1
  18   11   30 1
  19   13   16 1
  20   13   31 1
  21   13   32 1
  22   14   15 1
  23   14   24 1
  24   14   33 1
  25   14   34 1
  26   15   16 1
  27   15   27 1
  28   16   35 1
  29   16   36 1
  30   17   18 ar
  31   17   23 1
  32   18   19 ar
  33   18   37 1
  34   19   20 ar
  35   19   22 1
  36   20   21 ar
  37   20   38 1
  38   21   39 1
  39   22   40 1
  40   22   41 1
  41   22   42 1
  42   23   43 1
  43   23   44 1
  44   23   45 1
  45   24   25 1
  46   24   46 1
  47   24   47 1
  48   25   26 1
  49   25   48 1
  50   25   49 1
  51   26   27 1
  52   26   50 1
  53   26   51 1
  54   27   52 1
  55   27   53 1

#	End of record

