#	Name: ASD02198343
#	Creating user name:	WinNT
#	Creation time:	15. 06. 2019 20:19

#	Modifying user name:	WinNT
#	Modification time:	15. 06. 2019 20:19

#	Program:	/corina/corina34_cracker 3.40 0067  02.08.2006

@<TRIPOS>MOLECULE
ASD02198343
  33   35    0    0    0
SMALL
NO_CHARGES


@<TRIPOS>ATOM
   1 C1             0.5290     1.7103     0.0287 C.2     
   2 C2             0.6016     0.3342     0.1480 C.2     
   3 S3             2.1549     2.3528     0.2464 S.3     
   4 C4             2.7671     0.7735     0.4705 C.2     
   5 N5             1.8142    -0.1095     0.3824 N.2     
   6 N6            -0.5009    -0.4967     0.0313 N.pl3   
   7 C7            -0.6333     2.4613    -0.2267 C.2     
   8 C8            -0.5822     3.9401    -0.1881 C.ar    
   9 O9            -1.6825     1.8940    -0.4798 O.2     
  10 N10            4.0896     0.4748     0.7120 N.pl3   
  11 C11           -1.4715     4.6922    -0.9566 C.ar    
  12 C12            0.3517     4.5880     0.6213 C.ar    
  13 C13            0.3938     5.9666     0.6532 C.ar    
  14 C14           -0.4876     6.7066    -0.1148 C.ar    
  15 C15           -1.4191     6.0702    -0.9158 C.ar    
  16 C16            4.4743    -0.8468     0.9573 C.ar    
  17 C17            3.8034    -1.9034     0.3455 C.ar    
  18 C18            4.2214    -3.1950     0.6199 C.ar    
  19 C19            5.2820    -3.3923     1.4850 C.ar    
  20 N20            5.8959    -2.3704     2.0485 N.ar    
  21 C21            5.5345    -1.1254     1.8101 C.ar    
  22 H22           -1.3771    -0.1185    -0.1426 H       
  23 H23           -0.3967    -1.4567     0.1234 H       
  24 H24            4.7542     1.1814     0.7120 H       
  25 H25           -2.1991     4.1966    -1.5822 H       
  26 H26            1.0398     4.0115     1.2218 H       
  27 H27            1.1162     6.4693     1.2793 H       
  28 H28           -0.4510     7.7856    -0.0858 H       
  29 H29           -2.1042     6.6534    -1.5133 H       
  30 H30            2.9776    -1.7200    -0.3260 H       
  31 H31            3.7244    -4.0384     0.1638 H       
  32 H32            5.6118    -4.3974     1.7024 H       
  33 H33            6.0616    -0.3144     2.2905 H       
@<TRIPOS>BOND
   1    1    2 2
   2    1    3 1
   3    1    7 1
   4    2    6 1
   5    2    5 1
   6    3    4 1
   7    4    5 2
   8    4   10 1
   9    6   22 1
  10    6   23 1
  11    7    8 1
  12    7    9 2
  13    8   11 ar
  14    8   12 ar
  15   10   16 1
  16   10   24 1
  17   11   15 ar
  18   11   25 1
  19   12   13 ar
  20   12   26 1
  21   13   14 ar
  22   13   27 1
  23   14   15 ar
  24   14   28 1
  25   15   29 1
  26   16   17 ar
  27   16   21 ar
  28   17   18 ar
  29   17   30 1
  30   18   19 ar
  31   18   31 1
  32   19   20 ar
  33   19   32 1
  34   20   21 ar
  35   21   33 1

#	End of record

