#	Name: ASD05872006
#	Creating user name:	WinNT
#	Creation time:	15. 06. 2019 21:04

#	Modifying user name:	WinNT
#	Modification time:	15. 06. 2019 21:04

#	Program:	/corina/corina34_cracker 3.40 0067  02.08.2006

@<TRIPOS>MOLECULE
ASD05872006
  77   80    0    0    0
SMALL
NO_CHARGES


@<TRIPOS>ATOM
   1 C1             0.0033     1.4741     0.6069 C.ar    
   2 C2             0.0073     0.0790     0.6075 C.ar    
   3 C3            -1.1740    -0.6162     0.7823 C.ar    
   4 C4            -2.3644     0.0825     0.9577 C.ar    
   5 C5            -2.3712     1.4846     0.9580 C.ar    
   6 C6            -1.1759     2.1722     0.7865 C.ar    
   7 C7            -3.7712    -0.3180     1.1661 C.2     
   8 C8            -4.4736     0.8435     1.2695 C.2     
   9 O9            -3.6458     1.8874     1.1464 O.3     
  10 C10           -5.9615     0.9393     1.4889 C.3     
  11 O11           -6.2353     0.9698     2.8911 O.3     
  12 C12           -7.5408     1.0555     3.2637 C.ar    
  13 C13           -8.5310     1.1087     2.3021 C.ar    
  14 C14           -9.8646     1.1963     2.6909 C.ar    
  15 C15          -10.2069     1.2307     4.0498 C.ar    
  16 C16           -9.2013     1.1765     5.0079 C.ar    
  17 C17           -7.8792     1.0838     4.6174 C.ar    
  18 C18          -11.1465     1.2696     1.9600 C.2     
  19 C19          -12.1127     1.3392     2.9165 C.2     
  20 O20          -11.5517     1.3157     4.1310 O.3     
  21 C21          -13.5927     1.4298     2.6477 C.3     
  22 C22            1.0749     4.1857     1.7366 C.3     
  23 C23           -7.7507    -0.1533     7.4864 C.3     
  24 C24           -6.1184     1.7212     7.7395 C.3     
  25 C25            2.2891     4.1051    -0.4456 C.3     
  26 O26           -6.8994     1.0306     5.5592 O.3     
  27 C27           -7.2992     1.1949     6.9213 C.3     
  28 C28          -11.3386     1.2682     0.5036 C.2     
  29 O29          -11.4836     0.2168    -0.0894 O.2     
  30 O30          -11.3539     2.4328    -0.1755 O.3     
  31 C31          -11.5366     3.7659    -2.2051 C.3     
  32 C32          -11.5482     2.3555    -1.6123 C.3     
  33 O33            1.1750    -0.5975     0.4354 O.3     
  34 S34            1.9098    -0.9042     1.7326 S.o2    
  35 O35            3.2645    -1.2875     1.3668 O.co2   
  36 O36            1.8829     0.3136     2.5278 O.co2   
  37 O37            1.1893    -1.9921     2.3756 O.co2   
  38 O38            1.1695     2.1523     0.4339 O.3     
  39 C39            1.0837     3.5752     0.3337 C.3     
  40 C40           -4.3018    -1.6855     1.2449 C.2     
  41 O41           -4.3671    -2.2513     2.3191 O.2     
  42 O42           -4.7163    -2.3133     0.1261 O.3     
  43 C43           -5.6473    -4.2078    -1.0881 C.3     
  44 C44           -5.2289    -3.6631     0.2791 C.3     
  45 H45           -1.1734    -1.6962     0.7824 H       
  46 H46           -1.1696     3.2522     0.7850 H       
  47 H47           -6.3393     1.8504     1.0250 H       
  48 H48           -6.4511     0.0741     1.0418 H       
  49 H49           -8.2718     1.0828     1.2540 H       
  50 H50           -9.4537     1.2027     6.0576 H       
  51 H51          -14.0140     0.4260     2.5924 H       
  52 H52          -14.0753     1.9825     3.4538 H       
  53 H53          -13.7594     1.9464     1.7025 H       
  54 H54            0.2162     3.8081     2.2917 H       
  55 H55            1.9928     3.9128     2.2573 H       
  56 H56            1.0095     5.2710     1.6601 H       
  57 H57           -8.5919    -0.5283     6.9035 H       
  58 H58           -6.9261    -0.8641     7.4330 H       
  59 H59           -8.0556    -0.0280     8.5253 H       
  60 H60           -5.2938     1.0104     7.6860 H       
  61 H61           -5.7968     2.6817     7.3368 H       
  62 H62           -6.4233     1.8465     8.7784 H       
  63 H63            3.2069     3.8322     0.0752 H       
  64 H64            2.2953     3.6702    -1.4450 H       
  65 H65            2.2236     5.1905    -0.5220 H       
  66 H66           -8.1238     1.9057     6.9747 H       
  67 H67          -11.6825     3.7079    -3.2838 H       
  68 H68          -12.3401     4.3534    -1.7609 H       
  69 H69          -10.5789     4.2413    -1.9930 H       
  70 H70          -10.7447     1.7680    -2.0566 H       
  71 H71          -12.5059     1.8801    -1.8244 H       
  72 H72            0.1659     3.8481    -0.1871 H       
  73 H73           -4.7843    -4.2201    -1.7539 H       
  74 H74           -6.0321    -5.2211    -0.9733 H       
  75 H75           -6.4235    -3.5701    -1.5112 H       
  76 H76           -4.4527    -4.3008     0.7022 H       
  77 H77           -6.0919    -3.6508     0.9448 H       
@<TRIPOS>BOND
   1    1    2 ar
   2    1   38 1
   3    1    6 ar
   4    2    3 ar
   5    2   33 1
   6    3    4 ar
   7    3   45 1
   8    4    5 ar
   9    4    7 1
  10    5    6 ar
  11    5    9 1
  12    6   46 1
  13    7    8 2
  14    7   40 1
  15    8    9 1
  16    8   10 1
  17   10   11 1
  18   10   47 1
  19   10   48 1
  20   11   12 1
  21   12   13 ar
  22   12   17 ar
  23   13   14 ar
  24   13   49 1
  25   14   15 ar
  26   14   18 1
  27   15   16 ar
  28   15   20 1
  29   16   17 ar
  30   16   50 1
  31   17   26 1
  32   18   19 2
  33   18   28 1
  34   19   20 1
  35   19   21 1
  36   21   51 1
  37   21   52 1
  38   21   53 1
  39   22   39 1
  40   22   54 1
  41   22   55 1
  42   22   56 1
  43   23   27 1
  44   23   57 1
  45   23   58 1
  46   23   59 1
  47   24   27 1
  48   24   60 1
  49   24   61 1
  50   24   62 1
  51   25   39 1
  52   25   63 1
  53   25   64 1
  54   25   65 1
  55   26   27 1
  56   27   66 1
  57   28   29 2
  58   28   30 1
  59   30   32 1
  60   31   32 1
  61   31   67 1
  62   31   68 1
  63   31   69 1
  64   32   70 1
  65   32   71 1
  66   33   34 1
  67   34   35 ar
  68   34   36 ar
  69   34   37 ar
  70   38   39 1
  71   39   72 1
  72   40   41 2
  73   40   42 1
  74   42   44 1
  75   43   44 1
  76   43   73 1
  77   43   74 1
  78   43   75 1
  79   44   76 1
  80   44   77 1

#	End of record

