#	Name: ASD04590176
#	Creating user name:	WinNT
#	Creation time:	15. 06. 2019 20:50

#	Modifying user name:	WinNT
#	Modification time:	15. 06. 2019 20:50

#	Program:	/corina/corina34_cracker 3.40 0067  02.08.2006

@<TRIPOS>MOLECULE
ASD04590176
  26   27    0    0    0
SMALL
NO_CHARGES


@<TRIPOS>ATOM
   1 N1            -0.0153     1.2802     0.0091 N.pl3   
   2 N2             0.0021    -0.0041     0.0020 N.2     
   3 C3             1.2461    -0.4440    -0.0122 C.2     
   4 C4             2.0907     0.6968    -0.0142 C.2     
   5 C5             1.2523     1.7670    -0.0004 C.2     
   6 C6             1.6770    -1.8532    -0.0239 C.2     
   7 O7             2.8610    -2.1264    -0.0362 O.2     
   8 N8             3.4931     0.7160    -0.0268 N.am    
   9 C9             4.1510     1.8922    -0.0268 C.2     
  10 O10            3.5287     2.9370    -0.0160 O.2     
  11 C11            5.6260     1.9124    -0.0401 C.ar    
  12 C12            6.3404     1.9159     1.1629 C.ar    
  13 C13            7.7223     1.9344     1.1412 C.ar    
  14 C14            8.3989     1.9493    -0.0650 C.ar    
  15 C15            7.7006     1.9464    -1.2589 C.ar    
  16 C16            6.3186     1.9222    -1.2557 C.ar    
  17 F17            5.6815     1.9018     2.3422 F       
  18 F18            5.6384     1.9190    -2.4230 F       
  19 O19            0.7581    -2.8388    -0.0209 O.3     
  20 H20           -0.8185     1.8241     0.0160 H       
  21 H21            1.5401     2.8079     0.0021 H       
  22 H22            3.9895    -0.1174    -0.0354 H       
  23 H23            8.2754     1.9375     2.0688 H       
  24 H24            9.4787     1.9637    -0.0747 H       
  25 H25            8.2368     1.9588    -2.1963 H       
  26 H26            1.0888    -3.7474    -0.0289 H       
@<TRIPOS>BOND
   1    1    2 1
   2    1    5 1
   3    1   20 1
   4    2    3 2
   5    3    4 1
   6    3    6 1
   7    4    5 2
   8    4    8 1
   9    5   21 1
  10    6    7 2
  11    6   19 1
  12    8    9 am
  13    8   22 1
  14    9   10 2
  15    9   11 1
  16   11   12 ar
  17   11   16 ar
  18   12   13 ar
  19   12   17 1
  20   13   14 ar
  21   13   23 1
  22   14   15 ar
  23   14   24 1
  24   15   16 ar
  25   15   25 1
  26   16   18 1
  27   19   26 1

#	End of record

