#	Name: ASD01140395
#	Creating user name:	WinNT
#	Creation time:	15. 06. 2019 19:00

#	Modifying user name:	WinNT
#	Modification time:	15. 06. 2019 19:00

#	Program:	/corina/corina34_cracker 3.40 0067  02.08.2006

@<TRIPOS>MOLECULE
ASD01140395
  66   71    0    0    0
SMALL
NO_CHARGES


@<TRIPOS>ATOM
   1 N1             0.0580     1.2540    -1.1549 N.pl3   
   2 C2             0.1241    -0.0840    -1.1449 C.2     
   3 C3             1.1801    -0.7657    -0.5767 C.2     
   4 C4             2.2718     0.0056     0.0398 C.2     
   5 C5             2.1584     1.4745     0.0064 C.ar    
   6 C6             3.1435     2.2907     0.5646 C.ar    
   7 C7             2.9659     3.6667     0.4934 C.ar    
   8 C8             1.8252     4.1722    -0.1249 C.ar    
   9 N9             0.9135     3.3769    -0.6424 N.ar    
  10 C10            1.0320     2.0555    -0.6025 C.ar    
  11 C11            1.2144    -2.2364    -0.5863 C.2     
  12 O12            0.2583    -2.8644    -1.0000 O.2     
  13 N13            2.3053    -2.8879    -0.1368 N.am    
  14 O14            3.2276    -0.5466     0.5559 O.2     
  15 C15           -1.0989     1.8930    -1.7868 C.3     
  16 N16            3.9204     4.5334     1.0363 N.pl3   
  17 C17            4.4873     6.7038     2.0870 C.3     
  18 C18            3.7236     5.9829     0.9559 C.3     
  19 C19            4.3900     6.5576    -0.3122 C.3     
  20 C20            4.9124     7.9181     0.0968 C.ar    
  21 C21            5.3076     8.9972    -0.6762 C.ar    
  22 C22            5.7571    10.1559    -0.0740 C.ar    
  23 C23            5.8130    10.2400     1.3049 C.ar    
  24 C24            5.4194     9.1650     2.0773 C.ar    
  25 C25            4.9684     8.0021     1.4753 C.ar    
  26 C26            3.4637    -5.0015    -0.2621 C.ar    
  27 C27            2.2956    -4.2820    -0.0388 C.ar    
  28 C28           -2.2038     2.0901    -0.7469 C.3     
  29 C29            3.4566    -6.3767    -0.1656 C.ar    
  30 C30            2.2767    -7.0457     0.1562 C.ar    
  31 C31            1.1062    -6.3221     0.3793 C.ar    
  32 C32            1.1180    -4.9470     0.2822 C.ar    
  33 C33            2.2664    -8.5254     0.2602 C.ar    
  34 C34            1.0877    -9.1958     0.5818 C.ar    
  35 C35            3.4341    -9.2508     0.0309 C.ar    
  36 C36            3.4186   -10.6273     0.1285 C.ar    
  37 C37            2.2471   -11.2872     0.4532 C.ar    
  38 C38            1.0839   -10.5727     0.6767 C.ar    
  39 H39           -0.6777    -0.6487    -1.5973 H       
  40 H40            4.0166     1.8658     1.0375 H       
  41 H41            1.6855     5.2416    -0.1808 H       
  42 H42            3.0970    -2.3892     0.1188 H       
  43 H43           -0.8035     2.8612    -2.1910 H       
  44 H44           -1.4681     1.2597    -2.5935 H       
  45 H45            4.7126     4.1746     1.4659 H       
  46 H46            3.8202     6.9050     2.9253 H       
  47 H47            5.3357     6.1024     2.4137 H       
  48 H48            2.6625     6.2304     0.9858 H       
  49 H49            5.2121     5.9169    -0.6309 H       
  50 H50            3.6564     6.6589    -1.1120 H       
  51 H51            5.2646     8.9322    -1.7533 H       
  52 H52            6.0649    10.9955    -0.6796 H       
  53 H53            6.1646    11.1452     1.7774 H       
  54 H54            5.4633     9.2314     3.1544 H       
  55 H55            4.3766    -4.4831    -0.5158 H       
  56 H56           -3.0646     2.5656    -1.2170 H       
  57 H57           -2.4992     1.1219    -0.3426 H       
  58 H58           -1.8346     2.7234     0.0599 H       
  59 H59            4.3643    -6.9353    -0.3395 H       
  60 H60            0.1909    -6.8384     0.6285 H       
  61 H61            0.2115    -4.3860     0.4553 H       
  62 H62            0.1791    -8.6389     0.7569 H       
  63 H63            4.3493    -8.7366    -0.2231 H       
  64 H64            4.3229   -11.1905    -0.0493 H       
  65 H65            2.2395   -12.3645     0.5286 H       
  66 H66            0.1721   -11.0929     0.9303 H       
@<TRIPOS>BOND
   1    1    2 1
   2    1   10 1
   3    1   15 1
   4    2    3 2
   5    2   39 1
   6    3    4 1
   7    3   11 1
   8    4    5 1
   9    4   14 2
  10    5    6 ar
  11    5   10 ar
  12    6    7 ar
  13    6   40 1
  14    7    8 ar
  15    7   16 1
  16    8    9 ar
  17    8   41 1
  18    9   10 ar
  19   11   12 2
  20   11   13 am
  21   13   27 1
  22   13   42 1
  23   15   28 1
  24   15   43 1
  25   15   44 1
  26   16   18 1
  27   16   45 1
  28   17   18 1
  29   17   25 1
  30   17   46 1
  31   17   47 1
  32   18   19 1
  33   18   48 1
  34   19   20 1
  35   19   49 1
  36   19   50 1
  37   20   21 ar
  38   20   25 ar
  39   21   22 ar
  40   21   51 1
  41   22   23 ar
  42   22   52 1
  43   23   24 ar
  44   23   53 1
  45   24   25 ar
  46   24   54 1
  47   26   27 ar
  48   26   29 ar
  49   26   55 1
  50   27   32 ar
  51   28   56 1
  52   28   57 1
  53   28   58 1
  54   29   30 ar
  55   29   59 1
  56   30   31 ar
  57   30   33 1
  58   31   32 ar
  59   31   60 1
  60   32   61 1
  61   33   34 ar
  62   33   35 ar
  63   34   38 ar
  64   34   62 1
  65   35   36 ar
  66   35   63 1
  67   36   37 ar
  68   36   64 1
  69   37   38 ar
  70   37   65 1
  71   38   66 1

#	End of record

