#	Name: ASD03730230
#	Creating user name:	WinNT
#	Creation time:	15. 06. 2019 20:44

#	Modifying user name:	WinNT
#	Modification time:	15. 06. 2019 20:44

#	Program:	/corina/corina34_cracker 3.40 0067  02.08.2006

@<TRIPOS>MOLECULE
ASD03730230
  67   72    0    0    0
SMALL
NO_CHARGES


@<TRIPOS>ATOM
   1 C1            -0.2505     1.4630    -0.1642 C.2     
   2 C2            -0.5194     0.0105    -0.1717 C.ar    
   3 C3            -0.0752    -0.7881     0.8851 C.ar    
   4 C4            -0.3267    -2.1416     0.8773 C.ar    
   5 C5            -1.0244    -2.7158    -0.1855 C.ar    
   6 C6            -1.4679    -1.9194    -1.2415 C.ar    
   7 C7            -1.2230    -0.5647    -1.2328 C.ar    
   8 O8            -0.3661     2.0973     0.8664 O.2     
   9 N9             0.1282     2.0841    -1.2988 N.am    
  10 O10           -6.9576    -1.7391     0.3481 O.3     
  11 C11           -6.9815    -0.3300     0.0529 C.3     
  12 O12           -6.0605     0.2344     1.0047 O.3     
  13 C13           -5.1731    -0.7634     1.2904 C.ar    
  14 C14           -5.7260    -1.9770     0.8878 C.ar    
  15 C15           -3.9172    -0.7338     1.8694 C.ar    
  16 C16           -3.1991    -1.9111     2.0565 C.ar    
  17 C17           -3.7655    -3.1183     1.6582 C.ar    
  18 C18           -5.0148    -3.1503     1.0749 C.ar    
  19 O19           -1.9562    -2.0994     2.5853 O.3     
  20 C20           -2.7745    -4.1945     2.0125 C.3     
  21 C21           -1.8058    -3.4808     2.9655 C.3     
  22 N22           -3.1256    -6.4500     1.9050 N.am    
  23 C23           -3.4296    -5.3783     2.6641 C.2     
  24 C24           -2.0711    -4.7434     0.8072 C.ar    
  25 C25           -1.2942    -4.1739    -0.1930 C.ar    
  26 C26           -0.7688    -4.9774    -1.2052 C.ar    
  27 C27           -1.0259    -6.3339    -1.2045 C.ar    
  28 C28           -1.7979    -6.8993    -0.2099 C.ar    
  29 C29           -2.3289    -6.1096     0.8087 C.ar    
  30 C30           -3.5773    -7.8129     2.1959 C.3     
  31 C31           -4.9196    -8.0636     1.5059 C.3     
  32 C32           -5.3913    -9.4870     1.8098 C.3     
  33 C33           -6.7337    -9.7377     1.1197 C.3     
  34 C34           -7.2054   -11.1610     1.4236 C.3     
  35 O35           -4.1000    -5.3716     3.6748 O.2     
  36 C36            0.2743     3.5416    -1.3223 C.3     
  37 C37            0.3938     1.3017    -2.5086 C.3     
  38 H38            0.4656    -0.3439     1.7076 H       
  39 H39            0.0166    -2.7591     1.6941 H       
  40 H40           -2.0077    -2.3651    -2.0640 H       
  41 H41           -1.5707     0.0524    -2.0481 H       
  42 H42           -6.6400    -0.1463    -0.9658 H       
  43 H43           -7.9823     0.0755     0.2014 H       
  44 H44           -3.4912     0.2092     2.1785 H       
  45 H45           -5.4399    -4.0931     0.7638 H       
  46 H46           -0.7824    -3.8183     2.8016 H       
  47 H47           -2.1027    -3.6312     4.0034 H       
  48 H48           -0.1641    -4.5403    -1.9860 H       
  49 H49           -0.6203    -6.9570    -1.9879 H       
  50 H50           -1.9919    -7.9617    -0.2208 H       
  51 H51           -2.8403    -8.5264     1.8272 H       
  52 H52           -3.6940    -7.9349     3.2728 H       
  53 H53           -5.6565    -7.3501     1.8746 H       
  54 H54           -4.8029    -7.9416     0.4290 H       
  55 H55           -4.6544   -10.2005     1.4410 H       
  56 H56           -5.5080    -9.6089     2.8866 H       
  57 H57           -7.4706    -9.0242     1.4884 H       
  58 H58           -6.6170    -9.6157     0.0428 H       
  59 H59           -6.4684   -11.8745     1.0548 H       
  60 H60           -7.3221   -11.2830     2.5004 H       
  61 H61           -8.1617   -11.3396     0.9320 H       
  62 H62            1.2956     3.8088    -1.0509 H       
  63 H63            0.0556     3.9126    -2.3237 H       
  64 H64           -0.4195     3.9878    -0.6099 H       
  65 H65            0.3328     0.2388    -2.2746 H       
  66 H66           -0.3451     1.5489    -3.2707 H       
  67 H67            1.3915     1.5351    -2.8805 H       
@<TRIPOS>BOND
   1    1    2 1
   2    1    8 2
   3    1    9 am
   4    2    3 ar
   5    2    7 ar
   6    3    4 ar
   7    3   38 1
   8    4    5 ar
   9    4   39 1
  10    5    6 ar
  11    5   25 1
  12    6    7 ar
  13    6   40 1
  14    7   41 1
  15    9   36 1
  16    9   37 1
  17   10   11 1
  18   10   14 1
  19   11   12 1
  20   11   42 1
  21   11   43 1
  22   12   13 1
  23   13   14 ar
  24   13   15 ar
  25   14   18 ar
  26   15   16 ar
  27   15   44 1
  28   16   17 ar
  29   16   19 1
  30   17   18 ar
  31   17   20 1
  32   18   45 1
  33   19   21 1
  34   20   21 1
  35   20   23 1
  36   20   24 1
  37   21   46 1
  38   21   47 1
  39   22   23 am
  40   22   29 1
  41   22   30 1
  42   23   35 2
  43   24   25 ar
  44   24   29 ar
  45   25   26 ar
  46   26   27 ar
  47   26   48 1
  48   27   28 ar
  49   27   49 1
  50   28   29 ar
  51   28   50 1
  52   30   31 1
  53   30   51 1
  54   30   52 1
  55   31   32 1
  56   31   53 1
  57   31   54 1
  58   32   33 1
  59   32   55 1
  60   32   56 1
  61   33   34 1
  62   33   57 1
  63   33   58 1
  64   34   59 1
  65   34   60 1
  66   34   61 1
  67   36   62 1
  68   36   63 1
  69   36   64 1
  70   37   65 1
  71   37   66 1
  72   37   67 1

#	End of record

