#	Name: ASD05503042
#	Creating user name:	WinNT
#	Creation time:	15. 06. 2019 21:01

#	Modifying user name:	WinNT
#	Modification time:	15. 06. 2019 21:01

#	Program:	/corina/corina34_cracker 3.40 0067  02.08.2006

@<TRIPOS>MOLECULE
ASD05503042
  39   40    0    0    0
SMALL
NO_CHARGES


@<TRIPOS>ATOM
   1 C1            -0.1495     1.3576     0.4553 C.ar    
   2 C2            -0.0919    -0.0210     0.2961 C.ar    
   3 C3             1.1383    -0.6576     0.2127 C.ar    
   4 C4             2.3073     0.0858     0.2888 C.ar    
   5 C5             2.2428     1.4648     0.4481 C.ar    
   6 C6             1.0166     2.0953     0.5307 C.ar    
   7 N7            -1.2731    -0.7673     0.2202 N.am    
   8 C8            -1.3338    -1.8541    -0.5745 C.2     
   9 C9            -2.5626    -2.7264    -0.5655 C.3     
  10 O10           -0.3994    -2.1300    -1.2969 O.2     
  11 N11            3.5492    -0.5519     0.2056 N.am    
  12 C12            4.5814     0.0603    -0.4078 C.2     
  13 C13            5.8628    -0.6532    -0.5868 C.ar    
  14 O14            4.4581     1.1995    -0.8138 O.2     
  15 C15            6.0078    -1.9614    -0.1218 C.ar    
  16 C16            7.2069    -2.6219    -0.2921 C.ar    
  17 C17            8.2652    -1.9909    -0.9218 C.ar    
  18 C18            8.1295    -0.6945    -1.3849 C.ar    
  19 C19            6.9331    -0.0237    -1.2273 C.ar    
  20 Br20           6.7489     1.7482    -1.8615 Br      
  21 C21           -3.7798    -1.8972    -0.9798 C.3     
  22 C22           -2.3743    -3.8827    -1.5496 C.3     
  23 H23           -1.1067     1.8541     0.5158 H       
  24 H24            1.1857    -1.7295     0.0892 H       
  25 H25            3.1524     2.0441     0.5077 H       
  26 H26            0.9691     3.1671     0.6546 H       
  27 H27           -2.0483    -0.5024     0.7397 H       
  28 H28           -2.7183    -3.1244     0.4372 H       
  29 H29            3.6676    -1.4348     0.5894 H       
  30 H30            5.1832    -2.4553     0.3705 H       
  31 H31            7.3201    -3.6340     0.0673 H       
  32 H32            9.2017    -2.5128    -1.0520 H       
  33 H33            8.9597    -0.2077    -1.8752 H       
  34 H34           -3.9139    -1.0734    -0.2787 H       
  35 H35           -3.6240    -1.4992    -1.9826 H       
  36 H36           -4.6685    -2.5281    -0.9734 H       
  37 H37           -1.5072    -4.4735    -1.2545 H       
  38 H38           -3.2631    -4.5137    -1.5432 H       
  39 H39           -2.2186    -3.4847    -2.5524 H       
@<TRIPOS>BOND
   1    1    2 ar
   2    1    6 ar
   3    1   23 1
   4    2    3 ar
   5    2    7 1
   6    3    4 ar
   7    3   24 1
   8    4    5 ar
   9    4   11 1
  10    5    6 ar
  11    5   25 1
  12    6   26 1
  13    7    8 am
  14    7   27 1
  15    8    9 1
  16    8   10 2
  17    9   21 1
  18    9   22 1
  19    9   28 1
  20   11   12 am
  21   11   29 1
  22   12   13 1
  23   12   14 2
  24   13   15 ar
  25   13   19 ar
  26   15   16 ar
  27   15   30 1
  28   16   17 ar
  29   16   31 1
  30   17   18 ar
  31   17   32 1
  32   18   19 ar
  33   18   33 1
  34   19   20 1
  35   21   34 1
  36   21   35 1
  37   21   36 1
  38   22   37 1
  39   22   38 1
  40   22   39 1

#	End of record

