#	Name: ASD00191053
#	Creating user name:	WinNT
#	Creation time:	15. 06. 2019 18:33

#	Modifying user name:	WinNT
#	Modification time:	15. 06. 2019 18:33

#	Program:	/corina/corina34_cracker 3.40 0067  02.08.2006

@<TRIPOS>MOLECULE
ASD00191053
  56   60    0    0    0
SMALL
NO_CHARGES


@<TRIPOS>ATOM
   1 C1            -0.0329     1.4024     0.3987 C.ar    
   2 C2            -0.0149    -0.0122     0.4146 C.ar    
   3 N3            -1.1510    -0.6970     0.2336 N.ar    
   4 C4            -2.3009    -0.0815     0.0385 C.ar    
   5 C5            -2.3909     1.3136     0.0110 C.ar    
   6 C6            -1.2628     2.0725     0.1850 C.ar    
   7 C7             1.1596     2.1135     0.5878 C.ar    
   8 C8             2.3252     1.4351     0.7851 C.ar    
   9 C9             2.3464     0.0431     0.8009 C.ar    
  10 C10            1.2052    -0.6778     0.6213 C.ar    
  11 C11           -3.3621    -2.2279    -0.2581 C.ar    
  12 C12           -2.2656    -2.8076    -0.8832 C.ar    
  13 C13           -2.1808    -4.1810    -0.9873 C.ar    
  14 C14           -3.1842    -4.9847    -0.4714 C.ar    
  15 C15           -4.2776    -4.4104     0.1518 C.ar    
  16 C16           -4.3670    -3.0342     0.2586 C.ar    
  17 N17           -1.3254     3.4625     0.1620 N.am    
  18 C18           -2.2460     4.0831    -0.6021 C.2     
  19 C19           -2.2415     5.5857    -0.7161 C.3     
  20 O20           -3.0779     3.4322    -1.1979 O.2     
  21 N21           -3.4506    -0.8376    -0.1446 N.pl3   
  22 C22           -3.3802     6.0308    -1.6360 C.3     
  23 C23           -3.3757     7.5564    -1.7518 C.3     
  24 C24           -3.5693     8.1736    -0.3653 C.3     
  25 C25           -2.4306     7.7286     0.5546 C.3     
  26 C26           -2.4351     6.2030     0.6704 C.3     
  27 C27           -3.3225    -6.4923    -0.4590 C.3     
  28 C28           -4.3892    -6.7914     0.6156 C.3     
  29 C29           -5.2239    -5.4933     0.6247 C.3     
  30 H30           -3.3457     1.7916    -0.1510 H       
  31 H31            1.1551     3.1934     0.5768 H       
  32 H32            3.2437     1.9842     0.9307 H       
  33 H33            3.2821    -0.4727     0.9587 H       
  34 H34            1.2379    -1.7572     0.6365 H       
  35 H35           -1.4813    -2.1847    -1.2872 H       
  36 H36           -1.3282    -4.6315    -1.4737 H       
  37 H37           -5.2206    -2.5860     0.7452 H       
  38 H38           -0.7064     3.9847     0.6958 H       
  39 H39           -1.2892     5.9158    -1.1310 H       
  40 H40           -4.3154    -0.4011    -0.1939 H       
  41 H41           -3.2423     5.5911    -2.6238 H       
  42 H42           -4.3326     5.7007    -1.2211 H       
  43 H43           -2.4233     7.8865    -2.1667 H       
  44 H44           -4.1869     7.8735    -2.4071 H       
  45 H45           -3.5661     9.2605    -0.4477 H       
  46 H46           -4.5217     7.8436     0.0496 H       
  47 H47           -1.4782     8.0587     0.1397 H       
  48 H48           -2.5685     8.1683     1.5424 H       
  49 H49           -3.3875     5.8729     1.0853 H       
  50 H50           -1.6239     5.8859     1.3257 H       
  51 H51           -3.6565    -6.8495    -1.4331 H       
  52 H52           -2.3739    -6.9569    -0.1899 H       
  53 H53           -5.0026    -7.6445     0.3256 H       
  54 H54           -3.9240    -6.9597     1.5869 H       
  55 H55           -5.5736    -5.2756     1.6339 H       
  56 H56           -6.0687    -5.5821    -0.0583 H       
@<TRIPOS>BOND
   1    1    2 ar
   2    1    7 ar
   3    1    6 ar
   4    2    3 ar
   5    2   10 ar
   6    3    4 ar
   7    4    5 ar
   8    4   21 1
   9    5    6 ar
  10    5   30 1
  11    6   17 1
  12    7    8 ar
  13    7   31 1
  14    8    9 ar
  15    8   32 1
  16    9   10 ar
  17    9   33 1
  18   10   34 1
  19   11   12 ar
  20   11   16 ar
  21   11   21 1
  22   12   13 ar
  23   12   35 1
  24   13   14 ar
  25   13   36 1
  26   14   15 ar
  27   14   27 1
  28   15   16 ar
  29   15   29 1
  30   16   37 1
  31   17   18 am
  32   17   38 1
  33   18   19 1
  34   18   20 2
  35   19   22 1
  36   19   26 1
  37   19   39 1
  38   21   40 1
  39   22   23 1
  40   22   41 1
  41   22   42 1
  42   23   24 1
  43   23   43 1
  44   23   44 1
  45   24   25 1
  46   24   45 1
  47   24   46 1
  48   25   26 1
  49   25   47 1
  50   25   48 1
  51   26   49 1
  52   26   50 1
  53   27   28 1
  54   27   51 1
  55   27   52 1
  56   28   29 1
  57   28   53 1
  58   28   54 1
  59   29   55 1
  60   29   56 1

#	End of record

