#	Name: ASD04122006
#	Creating user name:	WinNT
#	Creation time:	15. 06. 2019 20:48

#	Modifying user name:	WinNT
#	Modification time:	15. 06. 2019 20:48

#	Program:	/corina/corina34_cracker 3.40 0067  02.08.2006

@<TRIPOS>MOLECULE
ASD04122006
  42   45    0    0    0
SMALL
NO_CHARGES


@<TRIPOS>ATOM
   1 C1            -0.1280     0.8780     0.3369 C.ar    
   2 C2            -0.2924    -0.4993     0.1580 C.ar    
   3 N3            -1.5129    -1.1409    -0.0864 N.pl3   
   4 C4            -2.6216    -0.7797    -0.8066 C.2     
   5 C5            -2.9979     0.4352    -1.4111 C.2     
   6 C6            -2.2783     1.6939    -1.2458 C.3     
   7 S7            -1.5301     1.9286     0.3673 S.3     
   8 C8            -1.7284    -2.4066     0.4165 C.2     
   9 C9            -2.9266    -2.8781    -0.0612 C.2     
  10 C10           -3.4922    -1.8797    -0.8348 C.2     
  11 C11            1.1399     1.4140     0.5183 C.ar    
  12 C12            2.2495     0.5938     0.5507 C.ar    
  13 C13            2.0940    -0.7725     0.4007 C.ar    
  14 C14            0.8416    -1.3124     0.2069 C.ar    
  15 O15           -3.9872     0.4353    -2.1175 O.2     
  16 C16           -1.1925     1.7617    -2.2887 C.ar    
  17 C17           -0.4143     0.6493    -2.5495 C.ar    
  18 C18            0.5816     0.7115    -3.5061 C.ar    
  19 C19            0.7992     1.8859    -4.2021 C.ar    
  20 C20            0.0204     2.9980    -3.9419 C.ar    
  21 C21           -0.9784     2.9345    -2.9883 C.ar    
  22 N22           -0.8768    -3.0899     1.2629 N.3     
  23 C23           -1.4707    -3.2408     2.5980 C.3     
  24 C24           -0.5103    -4.3959     0.6991 C.3     
  25 H25           -2.9736     2.5140    -1.4252 H       
  26 H26           -3.3507    -3.8524     0.1318 H       
  27 H27           -4.4324    -1.9366    -1.3632 H       
  28 H28            1.2588     2.4811     0.6347 H       
  29 H29            3.2334     1.0163     0.6919 H       
  30 H30            2.9585    -1.4188     0.4353 H       
  31 H31            0.7352    -2.3809     0.0911 H       
  32 H32           -0.5843    -0.2682    -2.0058 H       
  33 H33            1.1901    -0.1573    -3.7094 H       
  34 H34            1.5778     1.9347    -4.9489 H       
  35 H35            0.1906     3.9156    -4.4854 H       
  36 H36           -1.5868     3.8033    -2.7850 H       
  37 H37           -2.4052    -3.7964     2.5192 H       
  38 H38           -0.7796    -3.7820     3.2441 H       
  39 H39           -1.6682    -2.2559     3.0212 H       
  40 H40           -0.1210    -4.2598    -0.3099 H       
  41 H41            0.2532    -4.8599     1.3235 H       
  42 H42           -1.3911    -5.0371     0.6653 H       
@<TRIPOS>BOND
   1    1    2 ar
   2    1   11 ar
   3    1    7 1
   4    2    3 1
   5    2   14 ar
   6    3    8 1
   7    3    4 1
   8    4    5 1
   9    4   10 2
  10    5    6 1
  11    5   15 2
  12    6    7 1
  13    6   16 1
  14    6   25 1
  15    8    9 2
  16    8   22 1
  17    9   10 1
  18    9   26 1
  19   10   27 1
  20   11   12 ar
  21   11   28 1
  22   12   13 ar
  23   12   29 1
  24   13   14 ar
  25   13   30 1
  26   14   31 1
  27   16   17 ar
  28   16   21 ar
  29   17   18 ar
  30   17   32 1
  31   18   19 ar
  32   18   33 1
  33   19   20 ar
  34   19   34 1
  35   20   21 ar
  36   20   35 1
  37   21   36 1
  38   22   23 1
  39   22   24 1
  40   23   37 1
  41   23   38 1
  42   23   39 1
  43   24   40 1
  44   24   41 1
  45   24   42 1

#	End of record

