#	Name: ASD05940099
#	Creating user name:	WinNT
#	Creation time:	15. 06. 2019 21:04

#	Modifying user name:	WinNT
#	Modification time:	15. 06. 2019 21:04

#	Program:	/corina/corina34_cracker 3.40 0067  02.08.2006

@<TRIPOS>MOLECULE
ASD05940099
  47   47    0    0    0
SMALL
NO_CHARGES


@<TRIPOS>ATOM
   1 C1            -0.2145     1.3380     0.0469 C.ar    
   2 C2            -0.2841    -0.0404     0.0714 C.ar    
   3 C3             1.0200     1.9697    -0.0275 C.ar    
   4 C4             2.1844     1.2146    -0.0773 C.ar    
   5 C5             2.1148    -0.1638    -0.0529 C.ar    
   6 C6             0.8803    -0.7955     0.0216 C.ar    
   7 N7             0.8096    -2.1942     0.0464 N.am    
   8 C8             1.7534    -2.9053     0.6947 C.2     
   9 C9             1.6224    -4.4021     0.8102 C.3     
  10 O10            2.7081    -2.3404     1.1851 O.2     
  11 N11            1.0906     3.3684    -0.0528 N.am    
  12 C12            0.1857     4.1012     0.6258 C.2     
  13 C13            0.1908     5.6035     0.5068 C.3     
  14 O14           -0.6327     3.5516     1.3324 O.2     
  15 C15           -0.9286     6.1874     1.3710 C.3     
  16 C16           -0.9234     7.7126     1.2502 C.3     
  17 C17           -2.1177     8.2887     2.0135 C.3     
  18 C18            2.8168    -4.9602     1.5866 C.3     
  19 C19            0.3747     8.2666     1.8408 C.3     
  20 C20            2.7792    -4.4385     3.0244 C.3     
  21 C21            2.7493    -6.4887     1.5967 C.3     
  22 H22           -1.1203     1.9252     0.0811 H       
  23 H23           -1.2442    -0.5317     0.1297 H       
  24 H24            3.1445     1.7058    -0.1356 H       
  25 H25            3.0203    -0.7511    -0.0920 H       
  26 H26            0.0814    -2.6511    -0.4029 H       
  27 H27            0.7001    -4.6465     1.3372 H       
  28 H28            1.5990    -4.8428    -0.1865 H       
  29 H29            1.7908     3.8096    -0.5588 H       
  30 H30            1.1514     5.9916     0.8456 H       
  31 H31            0.0314     5.8861    -0.5338 H       
  32 H32           -1.8892     5.7993     1.0322 H       
  33 H33           -0.7692     5.9048     2.4116 H       
  34 H34           -0.9938     7.9941     0.1995 H       
  35 H35           -2.0474     8.0072     3.0642 H       
  36 H36           -2.1140     9.3753     1.9274 H       
  37 H37           -3.0425     7.8940     1.5928 H       
  38 H38            3.7426    -4.6405     1.1082 H       
  39 H39            1.2255     7.8562     1.2970 H       
  40 H40            0.3784     9.3532     1.7547 H       
  41 H41            0.4450     7.9851     2.8915 H       
  42 H42            2.8273    -3.3496     3.0172 H       
  43 H43            1.8535    -4.7581     3.5028 H       
  44 H44            3.6302    -4.8361     3.5775 H       
  45 H45            2.7761    -6.8603     0.5724 H       
  46 H46            3.6003    -6.8862     2.1499 H       
  47 H47            1.8236    -6.8083     2.0752 H       
@<TRIPOS>BOND
   1    1    2 ar
   2    1    3 ar
   3    1   22 1
   4    2    6 ar
   5    2   23 1
   6    3    4 ar
   7    3   11 1
   8    4    5 ar
   9    4   24 1
  10    5    6 ar
  11    5   25 1
  12    6    7 1
  13    7    8 am
  14    7   26 1
  15    8    9 1
  16    8   10 2
  17    9   18 1
  18    9   27 1
  19    9   28 1
  20   11   12 am
  21   11   29 1
  22   12   13 1
  23   12   14 2
  24   13   15 1
  25   13   30 1
  26   13   31 1
  27   15   16 1
  28   15   32 1
  29   15   33 1
  30   16   17 1
  31   16   19 1
  32   16   34 1
  33   17   35 1
  34   17   36 1
  35   17   37 1
  36   18   20 1
  37   18   21 1
  38   18   38 1
  39   19   39 1
  40   19   40 1
  41   19   41 1
  42   20   42 1
  43   20   43 1
  44   20   44 1
  45   21   45 1
  46   21   46 1
  47   21   47 1

#	End of record

