#	Name: ASD01913122
#	Creating user name:	WinNT
#	Creation time:	15. 06. 2019 20:01

#	Modifying user name:	WinNT
#	Modification time:	15. 06. 2019 20:01

#	Program:	/corina/corina34_cracker 3.40 0067  02.08.2006

@<TRIPOS>MOLECULE
ASD01913122
  44   47    0    0    0
SMALL
NO_CHARGES


@<TRIPOS>ATOM
   1 C1             1.7964     0.2508    -0.4677 C.ar    
   2 C2             1.5447    -1.1229     0.0341 C.2     
   3 N3             0.5158    -1.9272    -0.3154 N.2     
   4 C4             0.6294    -3.0520     0.3287 C.2     
   5 O5             1.7220    -3.0050     1.1025 O.3     
   6 C6             2.3071    -1.8052     0.9229 C.2     
   7 C7            -0.3167    -4.2202     0.2218 C.3     
   8 C8             0.4452    -5.4506    -0.2759 C.3     
   9 C9            -0.5213    -6.6289    -0.4161 C.3     
  10 C10           -1.1246    -6.9551     0.9537 C.3     
  11 N11           -1.7342    -5.7369     1.5043 N.am    
  12 C12           -0.9176    -4.5191     1.5989 C.3     
  13 C13           -3.0179    -5.7365     1.9147 C.2     
  14 C14           -3.8603    -6.9271     1.7012 C.2     
  15 O15           -3.4813    -4.7539     2.4611 O.2     
  16 C16            2.9571     0.9278    -0.0988 C.ar    
  17 C17            3.1873     2.2048    -0.5680 C.ar    
  18 C18            2.2662     2.8141    -1.4045 C.ar    
  19 C19            1.1108     2.1448    -1.7738 C.ar    
  20 C20            0.8754     0.8653    -1.3138 C.ar    
  21 F21            2.4951     4.0649    -1.8609 F       
  22 C22           -3.9583    -7.7787     0.5057 C.2     
  23 N23           -4.8310    -8.6942     0.8065 N.2     
  24 O24           -5.2666    -8.5621     1.9239 O.3     
  25 C25           -4.7430    -7.5188     2.5715 C.2     
  26 C26           -5.0646    -7.0723     3.9745 C.3     
  27 H27            3.2082    -1.4513     1.4017 H       
  28 H28           -1.1153    -3.9785    -0.4795 H       
  29 H29            0.8945    -5.2322    -1.2446 H       
  30 H30            1.2282    -5.7062     0.4380 H       
  31 H31           -1.3184    -6.3649    -1.1111 H       
  32 H32            0.0173    -7.4984    -0.7928 H       
  33 H33           -1.8863    -7.7270     0.8431 H       
  34 H34           -0.3402    -7.3063     1.6242 H       
  35 H35           -0.1164    -4.6716     2.3219 H       
  36 H36           -1.5428    -3.6836     1.9139 H       
  37 H37            3.6753     0.4538     0.5538 H       
  38 H38            4.0866     2.7302    -0.2826 H       
  39 H39            0.3952     2.6236    -2.4257 H       
  40 H40           -0.0256     0.3442    -1.6022 H       
  41 H41           -3.4200    -7.6671    -0.4239 H       
  42 H42           -5.8104    -7.7398     4.4062 H       
  43 H43           -4.1591    -7.0986     4.5807 H       
  44 H44           -5.4570    -6.0557     3.9513 H       
@<TRIPOS>BOND
   1    1    2 1
   2    1   16 ar
   3    1   20 ar
   4    2    3 1
   5    2    6 2
   6    3    4 2
   7    4    5 1
   8    4    7 1
   9    5    6 1
  10    6   27 1
  11    7    8 1
  12    7   12 1
  13    7   28 1
  14    8    9 1
  15    8   29 1
  16    8   30 1
  17    9   10 1
  18    9   31 1
  19    9   32 1
  20   10   11 1
  21   10   33 1
  22   10   34 1
  23   11   12 1
  24   11   13 am
  25   12   35 1
  26   12   36 1
  27   13   14 1
  28   13   15 2
  29   14   22 1
  30   14   25 2
  31   16   17 ar
  32   16   37 1
  33   17   18 ar
  34   17   38 1
  35   18   19 ar
  36   18   21 1
  37   19   20 ar
  38   19   39 1
  39   20   40 1
  40   22   23 2
  41   22   41 1
  42   23   24 1
  43   24   25 1
  44   25   26 1
  45   26   42 1
  46   26   43 1
  47   26   44 1

#	End of record

