#	Name: ASD01813866
#	Creating user name:	WinNT
#	Creation time:	15. 06. 2019 19:31

#	Modifying user name:	WinNT
#	Modification time:	15. 06. 2019 19:31

#	Program:	/corina/corina34_cracker 3.40 0067  02.08.2006

@<TRIPOS>MOLECULE
ASD01813866
  58   61    0    0    0
SMALL
NO_CHARGES


@<TRIPOS>ATOM
   1 C1             0.3069     1.1931     1.2255 C.2     
   2 C2             0.1596    -0.1521     0.8613 C.2     
   3 C3             1.2681    -0.9347     0.7200 C.2     
   4 C4             2.5388    -0.3785     0.9420 C.2     
   5 N5             2.6533     0.9381     1.2971 N.am    
   6 C6             1.5384     1.7106     1.4350 C.2     
   7 C7             3.6796    -1.1807     0.7975 C.2     
   8 C8             4.9187    -0.6504     1.0112 C.2     
   9 C9             5.0327     0.7040     1.3757 C.2     
  10 C10            3.8668     1.4846     1.5135 C.2     
  11 O11            3.9562     2.6592     1.8286 O.2     
  12 C12            6.3509     1.2972     1.6113 C.2     
  13 O13            6.4533     2.5961     1.9605 O.3     
  14 O14            7.3533     0.6185     1.4920 O.2     
  15 C15            3.5373    -2.6291     0.4064 C.3     
  16 N16            3.6897    -2.7607    -1.0487 N.3     
  17 C17            3.7941    -4.1729    -1.4417 C.3     
  18 C18            3.8712    -4.2708    -2.9671 C.3     
  19 N19            5.0313    -3.5065    -3.4464 N.3     
  20 C20            4.9269    -2.0943    -3.0534 C.3     
  21 C21            4.8498    -1.9964    -1.5280 C.3     
  22 C22            5.1765    -3.6319    -4.8326 C.ar    
  23 C23            4.2804    -3.0003    -5.6849 C.ar    
  24 C24            4.4244    -3.1246    -7.0528 C.ar    
  25 C25            5.4634    -3.8804    -7.5753 C.ar    
  26 C26            6.3587    -4.5119    -6.7247 C.ar    
  27 C27            6.2201    -4.3832    -5.3566 C.ar    
  28 C28            4.0210    -5.7370    -3.3776 C.3     
  29 C29            2.5928    -3.6964    -3.5808 C.3     
  30 O30            5.6043    -4.0026    -8.9225 O.3     
  31 C31            6.6965    -4.7958    -9.3913 C.3     
  32 H32           -0.5660     1.8197     1.3349 H       
  33 H33           -0.8238    -0.5661     0.6942 H       
  34 H34            1.1694    -1.9731     0.4401 H       
  35 H35            1.6401     2.7486     1.7156 H       
  36 H36            5.8014    -1.2631     0.9023 H       
  37 H37            7.3443     2.9428     2.1053 H       
  38 H38            4.3060    -3.2178     0.9070 H       
  39 H39            2.5525    -2.9904     0.7028 H       
  40 H40            4.6929    -4.6068    -1.0036 H       
  41 H41            2.9178    -4.7150    -1.0864 H       
  42 H42            5.8032    -1.5522    -3.4087 H       
  43 H43            4.0281    -1.6604    -3.4915 H       
  44 H44            4.7431    -0.9518    -1.2355 H       
  45 H45            5.7606    -2.4056    -1.0908 H       
  46 H46            3.4709    -2.4124    -5.2781 H       
  47 H47            3.7276    -2.6335    -7.7158 H       
  48 H48            7.1672    -5.1004    -7.1325 H       
  49 H49            6.9175    -4.8747    -4.6945 H       
  50 H50            3.2153    -6.3224    -2.9347 H       
  51 H51            3.9736    -5.8169    -4.4637 H       
  52 H52            4.9808    -6.1163    -3.0269 H       
  53 H53            2.5518    -2.6229    -3.3966 H       
  54 H54            2.5906    -3.8811    -4.6550 H       
  55 H55            1.7251    -4.1762    -3.1279 H       
  56 H56            7.6344    -4.3686    -9.0364 H       
  57 H57            6.5949    -5.8133    -9.0139 H       
  58 H58            6.6934    -4.8105   -10.4812 H       
@<TRIPOS>BOND
   1    1    2 1
   2    1    6 2
   3    1   32 1
   4    2    3 2
   5    2   33 1
   6    3    4 1
   7    3   34 1
   8    4    5 1
   9    4    7 2
  10    5    6 1
  11    5   10 am
  12    6   35 1
  13    7    8 1
  14    7   15 1
  15    8    9 2
  16    8   36 1
  17    9   10 1
  18    9   12 1
  19   10   11 2
  20   12   13 1
  21   12   14 2
  22   13   37 1
  23   15   16 1
  24   15   38 1
  25   15   39 1
  26   16   17 1
  27   16   21 1
  28   17   18 1
  29   17   40 1
  30   17   41 1
  31   18   19 1
  32   18   28 1
  33   18   29 1
  34   19   20 1
  35   19   22 1
  36   20   21 1
  37   20   42 1
  38   20   43 1
  39   21   44 1
  40   21   45 1
  41   22   23 ar
  42   22   27 ar
  43   23   24 ar
  44   23   46 1
  45   24   25 ar
  46   24   47 1
  47   25   26 ar
  48   25   30 1
  49   26   27 ar
  50   26   48 1
  51   27   49 1
  52   28   50 1
  53   28   51 1
  54   28   52 1
  55   29   53 1
  56   29   54 1
  57   29   55 1
  58   30   31 1
  59   31   56 1
  60   31   57 1
  61   31   58 1

#	End of record

