#	Name: ASD04590153
#	Creating user name:	WinNT
#	Creation time:	15. 06. 2019 20:50

#	Modifying user name:	WinNT
#	Modification time:	15. 06. 2019 20:50

#	Program:	/corina/corina34_cracker 3.40 0067  02.08.2006

@<TRIPOS>MOLECULE
ASD04590153
  45   47    0    0    0
SMALL
NO_CHARGES


@<TRIPOS>ATOM
   1 N1            -0.0153     1.2802     0.0091 N.pl3   
   2 N2             0.0021    -0.0041     0.0020 N.2     
   3 C3             1.2455    -0.4440    -0.0122 C.2     
   4 C4             2.0903     0.6961    -0.0142 C.2     
   5 C5             1.2523     1.7667    -0.0004 C.2     
   6 C6             1.6764    -1.8547    -0.0235 C.2     
   7 N7             0.7571    -2.8402    -0.0200 N.am    
   8 O8             2.8611    -2.1284    -0.0359 O.2     
   9 N9             3.4929     0.7146    -0.0266 N.am    
  10 C10            4.1513     1.8906    -0.0267 C.2     
  11 C11            1.1850    -4.2412    -0.0312 C.3     
  12 C12            0.0893    -5.1159     0.5844 C.3     
  13 C13            0.5159    -6.5840     0.5145 C.3     
  14 N14            0.7410    -6.9635    -0.8861 N.3     
  15 C15            1.8215    -6.1692    -1.4844 C.3     
  16 C16            1.4339    -4.6888    -1.4743 C.3     
  17 O17            3.5296     2.9355    -0.0160 O.2     
  18 C18            5.6278     1.9101    -0.0397 C.ar    
  19 C19            6.3408     1.9135     1.1622 C.ar    
  20 C20            6.3194     1.9195    -1.2542 C.ar    
  21 C21            7.7002     1.9373    -1.2582 C.ar    
  22 C22            8.3988     1.9454    -0.0643 C.ar    
  23 C23            7.7215     1.9313     1.1418 C.ar    
  24 Cl24           5.4448     1.9082    -2.7537 Cl      
  25 C25            1.0173    -8.4015    -1.0040 C.3     
  26 Cl26           5.4930     1.8959     2.6770 Cl      
  27 H27           -0.8184     1.8242     0.0160 H       
  28 H28            1.5405     2.8076     0.0019 H       
  29 H29           -0.1880    -2.6218    -0.0102 H       
  30 H30            3.9889    -0.1189    -0.0351 H       
  31 H31            2.1029    -4.3464     0.5472 H       
  32 H32           -0.0625    -4.8302     1.6252 H       
  33 H33           -0.8392    -4.9800     0.0299 H       
  34 H34            1.4371    -6.7218     1.0807 H       
  35 H35           -0.2684    -7.2107     0.9391 H       
  36 H36            2.7365    -6.3090    -0.9089 H       
  37 H37            1.9855    -6.4946    -2.5117 H       
  38 H38            0.5265    -4.5461    -2.0611 H       
  39 H39            2.2427    -4.0979    -1.9042 H       
  40 H40            8.2360     1.9445    -2.1959 H       
  41 H41            9.4787     1.9585    -0.0738 H       
  42 H42            8.2738     1.9378     2.0699 H       
  43 H43            0.1682    -8.9672    -0.6207 H       
  44 H44            1.1802    -8.6555    -2.0514 H       
  45 H45            1.9087    -8.6486    -0.4273 H       
@<TRIPOS>BOND
   1    1    2 1
   2    1    5 1
   3    1   27 1
   4    2    3 2
   5    3    4 1
   6    3    6 1
   7    4    5 2
   8    4    9 1
   9    5   28 1
  10    6    7 am
  11    6    8 2
  12    7   11 1
  13    7   29 1
  14    9   10 am
  15    9   30 1
  16   10   17 2
  17   10   18 1
  18   11   12 1
  19   11   16 1
  20   11   31 1
  21   12   13 1
  22   12   32 1
  23   12   33 1
  24   13   14 1
  25   13   34 1
  26   13   35 1
  27   14   15 1
  28   14   25 1
  29   15   16 1
  30   15   36 1
  31   15   37 1
  32   16   38 1
  33   16   39 1
  34   18   19 ar
  35   18   20 ar
  36   19   26 1
  37   19   23 ar
  38   20   21 ar
  39   20   24 1
  40   21   22 ar
  41   21   40 1
  42   22   23 ar
  43   22   41 1
  44   23   42 1
  45   25   43 1
  46   25   44 1
  47   25   45 1

#	End of record

