#	Name: ASD03570047
#	Creating user name:	WinNT
#	Creation time:	15. 06. 2019 20:43

#	Modifying user name:	WinNT
#	Modification time:	15. 06. 2019 20:43

#	Program:	/corina/corina34_cracker 3.40 0067  02.08.2006

@<TRIPOS>MOLECULE
ASD03570047
  50   52    0    0    0
SMALL
NO_CHARGES


@<TRIPOS>ATOM
   1 C1             0.3497     1.3550    -0.0128 C.ar    
   2 C2             0.5603    -0.0163     0.0236 C.ar    
   3 C3             1.8520    -0.5017     0.0600 C.ar    
   4 N4             2.8864     0.3186     0.0606 N.ar    
   5 C5             2.7325     1.6306     0.0266 C.ar    
   6 C6             1.4566     2.1943    -0.0113 C.ar    
   7 O7             3.8247     2.4367     0.0291 O.3     
   8 C8             5.0454     1.8566     0.1706 C.ar    
   9 C9             6.7747     0.4259    -0.6717 C.ar    
  10 C10            5.5331     1.0140    -0.8178 C.ar    
  11 C11            5.8087     2.1106     1.3013 C.ar    
  12 C12            7.0493     1.5201     1.4425 C.ar    
  13 C13            7.5309     0.6764     0.4582 C.ar    
  14 C14            7.8791     1.7958     2.6699 C.3     
  15 C15            7.1119     1.3473     3.9154 C.3     
  16 C16            9.1975     1.0250     2.5779 C.3     
  17 C17            8.1701     3.2950     2.7625 C.3     
  18 N18            1.2944     3.5858    -0.0478 N.am    
  19 C19            0.1523     4.1431     0.4011 C.2     
  20 N20           -0.0513     5.4680     0.2615 N.am    
  21 C21           -1.1813     6.0678     0.8346 C.ar    
  22 O22           -0.6945     3.4505     0.9321 O.2     
  23 C23           -3.4129     7.2527     1.9676 C.ar    
  24 C24           -2.9134     6.0729     2.4930 C.ar    
  25 C25           -1.8001     5.4803     1.9291 C.ar    
  26 C26           -1.6804     7.2550     0.3110 C.ar    
  27 C27           -2.7952     7.8445     0.8790 C.ar    
  28 F28           -4.5018     7.8298     2.5212 F       
  29 F29           -1.0769     7.8324    -0.7509 F       
  30 H30           -0.6510     1.7599    -0.0461 H       
  31 H31           -0.2782    -0.6969     0.0239 H       
  32 H32            2.0189    -1.5684     0.0888 H       
  33 H33            7.1548    -0.2301    -1.4408 H       
  34 H34            4.9425     0.8177    -1.7005 H       
  35 H35            5.4333     2.7696     2.0701 H       
  36 H36            8.5011     0.2154     0.5706 H       
  37 H37            6.9046     0.2792     3.8494 H       
  38 H38            7.7121     1.5467     4.8032 H       
  39 H39            6.1726     1.8964     3.9809 H       
  40 H40            9.7440     1.3445     1.6906 H       
  41 H41            9.7977     1.2244     3.4657 H       
  42 H42            8.9901    -0.0431     2.5119 H       
  43 H43            7.2308     3.8441     2.8281 H       
  44 H44            8.7703     3.4944     3.6503 H       
  45 H45            8.7166     3.6145     1.8752 H       
  46 H46            2.0041     4.1478    -0.3961 H       
  47 H47            0.5841     6.0066    -0.2356 H       
  48 H48           -3.3969     5.6135     3.3424 H       
  49 H49           -1.4117     4.5600     2.3396 H       
  50 H50           -3.1863     8.7647     0.4707 H       
@<TRIPOS>BOND
   1    1    2 ar
   2    1    6 ar
   3    1   30 1
   4    2    3 ar
   5    2   31 1
   6    3    4 ar
   7    3   32 1
   8    4    5 ar
   9    5    6 ar
  10    5    7 1
  11    6   18 1
  12    7    8 1
  13    8   11 ar
  14    8   10 ar
  15    9   10 ar
  16    9   13 ar
  17    9   33 1
  18   10   34 1
  19   11   12 ar
  20   11   35 1
  21   12   13 ar
  22   12   14 1
  23   13   36 1
  24   14   15 1
  25   14   16 1
  26   14   17 1
  27   15   37 1
  28   15   38 1
  29   15   39 1
  30   16   40 1
  31   16   41 1
  32   16   42 1
  33   17   43 1
  34   17   44 1
  35   17   45 1
  36   18   19 am
  37   18   46 1
  38   19   20 am
  39   19   22 2
  40   20   21 1
  41   20   47 1
  42   21   26 ar
  43   21   25 ar
  44   23   24 ar
  45   23   27 ar
  46   23   28 1
  47   24   25 ar
  48   24   48 1
  49   25   49 1
  50   26   27 ar
  51   26   29 1
  52   27   50 1

#	End of record

