#	Name: ASD01810165
#	Creating user name:	WinNT
#	Creation time:	15. 06. 2019 19:23

#	Modifying user name:	WinNT
#	Modification time:	15. 06. 2019 19:23

#	Program:	/corina/corina34_cracker 3.40 0067  02.08.2006

@<TRIPOS>MOLECULE
ASD01810165
  38   40    0    0    0
SMALL
NO_CHARGES


@<TRIPOS>ATOM
   1 C1             0.1032     1.4769     0.3872 C.ar    
   2 C2             0.0844     0.0897     0.3792 C.ar    
   3 C3             1.2531    -0.6297     0.2382 C.ar    
   4 C4             2.4694     0.0388     0.1020 C.ar    
   5 C5             2.4837     1.4435     0.1107 C.ar    
   6 C6             1.2936     2.1569     0.2541 C.ar    
   7 N7             3.6450    -0.6678    -0.0386 N.pl3   
   8 C8             4.8373    -0.0733    -0.1712 C.2     
   9 C9             4.9779     1.3000    -0.1768 C.2     
  10 C10            3.7766     2.1382    -0.0343 C.2     
  11 O11            3.8475     3.3547    -0.0335 O.2     
  12 C12            6.3048     1.9146    -0.3237 C.2     
  13 O13            6.4291     3.2570    -0.3277 O.3     
  14 O14            7.2902     1.2126    -0.4415 O.2     
  15 C15            3.5871    -2.1316    -0.0427 C.3     
  16 C16            3.4445    -2.6248    -1.4595 C.ar    
  17 C17            4.5651    -2.7664    -2.2570 C.ar    
  18 C18            4.4371    -3.2183    -3.5562 C.ar    
  19 C19            3.1829    -3.5301    -4.0605 C.ar    
  20 C20            2.0601    -3.3871    -3.2583 C.ar    
  21 C21            2.1940    -2.9402    -1.9580 C.ar    
  22 O22            3.0543    -3.9744    -5.3384 O.3     
  23 C23            1.7327    -4.2762    -5.7904 C.3     
  24 F24            1.2194    -1.9802     0.2326 F       
  25 H25           -0.8205     2.0263     0.4939 H       
  26 H26           -0.8550    -0.4325     0.4847 H       
  27 H27            1.3056     3.2368     0.2603 H       
  28 H28            5.7185    -0.6887    -0.2769 H       
  29 H29            7.3220     3.6148    -0.4270 H       
  30 H30            4.5030    -2.5327     0.3912 H       
  31 H31            2.7311    -2.4630     0.5452 H       
  32 H32            5.5413    -2.5232    -1.8641 H       
  33 H33            5.3127    -3.3284    -4.1788 H       
  34 H34            1.0826    -3.6292    -3.6486 H       
  35 H35            1.3203    -2.8288    -1.3331 H       
  36 H36            1.3042    -5.0585    -5.1638 H       
  37 H37            1.1140    -3.3810    -5.7279 H       
  38 H38            1.7718    -4.6195    -6.8242 H       
@<TRIPOS>BOND
   1    1    2 ar
   2    1    6 ar
   3    1   25 1
   4    2    3 ar
   5    2   26 1
   6    3    4 ar
   7    3   24 1
   8    4    5 ar
   9    4    7 1
  10    5    6 ar
  11    5   10 1
  12    6   27 1
  13    7    8 1
  14    7   15 1
  15    8    9 2
  16    8   28 1
  17    9   10 1
  18    9   12 1
  19   10   11 2
  20   12   13 1
  21   12   14 2
  22   13   29 1
  23   15   16 1
  24   15   30 1
  25   15   31 1
  26   16   17 ar
  27   16   21 ar
  28   17   18 ar
  29   17   32 1
  30   18   19 ar
  31   18   33 1
  32   19   20 ar
  33   19   22 1
  34   20   21 ar
  35   20   34 1
  36   21   35 1
  37   22   23 1
  38   23   36 1
  39   23   37 1
  40   23   38 1

#	End of record

