#	Name: ASD08151030
#	Creating user name:	WinNT
#	Creation time:	15. 06. 2019 21:17

#	Modifying user name:	WinNT
#	Modification time:	15. 06. 2019 21:17

#	Program:	/corina/corina34_cracker 3.40 0067  02.08.2006

@<TRIPOS>MOLECULE
ASD08151030
  35   36    0    0    0
SMALL
NO_CHARGES


@<TRIPOS>ATOM
   1 C1             0.3286     1.7710     0.0772 C.3     
   2 S2             0.1503    -0.0334     0.1319 S.o2    
   3 O3            -1.2179    -0.3957     0.2586 O.2     
   4 O4             0.9833    -0.6466    -0.8424 O.2     
   5 O5             0.7699    -0.4361     1.4625 O.3     
   6 F6             1.6700     2.1133     0.2788 F       
   7 F7            -0.0907     2.2433    -1.1711 F       
   8 F8            -0.4560     2.3478     1.0816 F       
   9 N9             1.0924     1.8986     2.9389 N.ar    
  10 C10            1.2610     3.0047     3.6213 C.ar    
  11 C11            0.4749     3.3063     4.7319 C.ar    
  12 C12           -0.5002     2.4377     5.1324 C.ar    
  13 C13           -0.6775     1.2511     4.3963 C.ar    
  14 C14           -1.6638     0.3133     4.7557 C.ar    
  15 C15           -1.8177    -0.8256     4.0325 C.ar    
  16 C16           -1.0004    -1.0871     2.9179 C.ar    
  17 C17           -0.0161    -0.1804     2.5364 C.ar    
  18 C18            0.1564     1.0078     3.2784 C.ar    
  19 C19           -1.1867    -2.3316     2.1495 C.2     
  20 O20           -0.2305    -2.8745     1.6303 O.2     
  21 N21           -2.4169    -2.8674     2.0225 N.am    
  22 C22           -2.5874    -4.1600     1.3544 C.3     
  23 O23           -3.5444    -2.1810     2.5348 O.3     
  24 C24           -4.1105    -1.2340     1.6266 C.3     
  25 Cl25          -2.6853     0.6133     6.1269 Cl      
  26 H26            2.0288     3.6999     3.3155 H       
  27 H27            0.6368     4.2255     5.2753 H       
  28 H28           -1.1183     2.6554     5.9908 H       
  29 H29           -2.5771    -1.5393     4.3163 H       
  30 H30           -2.5132    -4.9615     2.0894 H       
  31 H31           -3.5661    -4.1953     0.8758 H       
  32 H32           -1.8098    -4.2849     0.6008 H       
  33 H33           -4.4308    -1.7469     0.7197 H       
  34 H34           -4.9689    -0.7511     2.0935 H       
  35 H35           -3.3634    -0.4816     1.3739 H       
@<TRIPOS>BOND
   1    1    2 1
   2    1    6 1
   3    1    7 1
   4    1    8 1
   5    2    3 2
   6    2    4 2
   7    2    5 1
   8    5   17 1
   9    9   10 ar
  10    9   18 ar
  11   10   11 ar
  12   10   26 1
  13   11   12 ar
  14   11   27 1
  15   12   13 ar
  16   12   28 1
  17   13   14 ar
  18   13   18 ar
  19   14   15 ar
  20   14   25 1
  21   15   16 ar
  22   15   29 1
  23   16   17 ar
  24   16   19 1
  25   17   18 ar
  26   19   20 2
  27   19   21 am
  28   21   22 1
  29   21   23 1
  30   22   30 1
  31   22   31 1
  32   22   32 1
  33   23   24 1
  34   24   33 1
  35   24   34 1
  36   24   35 1

#	End of record

