#	Name: ASD09080002
#	Creating user name:	WinNT
#	Creation time:	15. 06. 2019 21:20

#	Modifying user name:	WinNT
#	Modification time:	15. 06. 2019 21:20

#	Program:	/corina/corina34_cracker 3.40 0067  02.08.2006

@<TRIPOS>MOLECULE
ASD09080002
  60   62    0    0    0
SMALL
NO_CHARGES


@<TRIPOS>ATOM
   1 C1            -1.7304     1.1376    -0.8833 C.ar    
   2 C2            -1.6044    -0.2358    -0.8040 C.ar    
   3 C3            -2.6861    -1.0094    -0.3886 C.ar    
   4 C4            -3.8902    -0.3930    -0.0550 C.ar    
   5 C5            -4.0063     0.9811    -0.1376 C.ar    
   6 C6            -2.9272     1.7457    -0.5458 C.ar    
   7 Cl7           -0.3834     2.1030    -1.4002 Cl      
   8 Cl8           -5.5062     1.7505     0.2771 Cl      
   9 C9            -2.5562    -2.4851    -0.3021 C.ar    
  10 C10           -3.6379    -3.2590     0.1134 C.ar    
  11 C11           -1.3540    -3.1023    -0.6414 C.ar    
  12 C12           -1.2388    -4.4752    -0.5591 C.ar    
  13 C13           -2.3139    -5.2382    -0.1406 C.ar    
  14 C14           -3.5115    -4.6312     0.1920 C.ar    
  15 C15           -2.1821    -6.7368    -0.0527 C.3     
  16 C16           -1.6904    -7.1245     1.3433 C.3     
  17 C17           -1.6754    -8.6489     1.4736 C.3     
  18 N18           -0.3362    -6.6037     1.5462 N.am    
  19 C19           -1.1837    -9.0366     2.8696 C.3     
  20 O20           -2.9963    -9.1569     1.2757 O.3     
  21 C21           -1.2850   -10.5304     3.0410 C.2     
  22 O22           -0.5305   -11.3453     2.2864 O.3     
  23 C23            0.6639    -6.9905     0.7297 C.2     
  24 C24            2.0569    -6.4547     0.9384 C.3     
  25 O25            0.4428    -7.7697    -0.1730 O.2     
  26 O26            2.9326    -7.0084    -0.0458 O.3     
  27 C27            4.2859    -6.5625     0.0636 C.3     
  28 O28           -1.9898    -8.3883     3.8556 O.3     
  29 O29           -2.0451   -10.9947     3.8574 O.2     
  30 C30           -0.7473   -12.6811     2.4142 C.ar    
  31 C31           -1.8574   -13.2647     1.8211 C.ar    
  32 C32            0.1442   -13.4640     3.1331 C.ar    
  33 C33           -0.0785   -14.8214     3.2616 C.ar    
  34 C34           -1.1884   -15.3997     2.6740 C.ar    
  35 C35           -2.0756   -14.6224     1.9525 C.ar    
  36 H36           -0.6691    -0.7090    -1.0639 H       
  37 H37           -4.7316    -0.9885     0.2672 H       
  38 H38           -3.0218     2.8197    -0.6092 H       
  39 H39           -4.5732    -2.7861     0.3737 H       
  40 H40           -0.5140    -2.5075    -0.9687 H       
  41 H41           -0.3075    -4.9547    -0.8223 H       
  42 H42           -4.3477    -5.2316     0.5186 H       
  43 H43           -3.1521    -7.1984    -0.2375 H       
  44 H44           -1.4669    -7.0830    -0.7989 H       
  45 H45           -2.3584    -6.7022     2.0940 H       
  46 H46           -1.0074    -9.0712     0.7229 H       
  47 H47           -0.1594    -5.9805     2.2682 H       
  48 H48           -0.1454    -8.7268     2.9882 H       
  49 H49           -3.6454    -8.8227     1.9098 H       
  50 H50            2.0462    -5.3688     0.8456 H       
  51 H51            2.4072    -6.7309     1.9330 H       
  52 H52            4.8860    -7.0277    -0.7184 H       
  53 H53            4.3214    -5.4787    -0.0474 H       
  54 H54            4.6824    -6.8409     1.0400 H       
  55 H55           -2.9280    -8.6179     3.8095 H       
  56 H56           -2.5507   -12.6579     1.2575 H       
  57 H57            1.0117   -13.0129     3.5917 H       
  58 H58            0.6153   -15.4313     3.8211 H       
  59 H59           -1.3605   -16.4611     2.7752 H       
  60 H60           -2.9419   -15.0765     1.4945 H       
@<TRIPOS>BOND
   1    1    2 ar
   2    1    7 1
   3    1    6 ar
   4    2    3 ar
   5    2   36 1
   6    3    4 ar
   7    3    9 1
   8    4    5 ar
   9    4   37 1
  10    5    6 ar
  11    5    8 1
  12    6   38 1
  13    9   10 ar
  14    9   11 ar
  15   10   14 ar
  16   10   39 1
  17   11   12 ar
  18   11   40 1
  19   12   13 ar
  20   12   41 1
  21   13   14 ar
  22   13   15 1
  23   14   42 1
  24   15   16 1
  25   15   43 1
  26   15   44 1
  27   16   17 1
  28   16   18 1
  29   16   45 1
  30   17   19 1
  31   17   20 1
  32   17   46 1
  33   18   23 am
  34   18   47 1
  35   19   21 1
  36   19   28 1
  37   19   48 1
  38   20   49 1
  39   21   22 1
  40   21   29 2
  41   22   30 1
  42   23   24 1
  43   23   25 2
  44   24   26 1
  45   24   50 1
  46   24   51 1
  47   26   27 1
  48   27   52 1
  49   27   53 1
  50   27   54 1
  51   28   55 1
  52   30   31 ar
  53   30   32 ar
  54   31   35 ar
  55   31   56 1
  56   32   33 ar
  57   32   57 1
  58   33   34 ar
  59   33   58 1
  60   34   35 ar
  61   34   59 1
  62   35   60 1

#	End of record

