#	Name: ASD05430556
#	Creating user name:	WinNT
#	Creation time:	15. 06. 2019 21:00

#	Modifying user name:	WinNT
#	Modification time:	15. 06. 2019 21:00

#	Program:	/corina/corina34_cracker 3.40 0067  02.08.2006

@<TRIPOS>MOLECULE
ASD05430556
  32   33    0    0    0
SMALL
NO_CHARGES


@<TRIPOS>ATOM
   1 C1            -0.0170     1.4003     0.0097 C.ar    
   2 C2             0.0021    -0.0041     0.0020 C.ar    
   3 C3             1.1839     2.0998     0.0020 C.ar    
   4 C4             2.3774     1.4112    -0.0131 C.ar    
   5 C5             2.3922     0.0234    -0.0207 C.ar    
   6 C6             1.2228    -0.6829    -0.0137 C.ar    
   7 C7             1.1808     3.6068     0.0097 C.3     
   8 C8             1.2497    -2.1896    -0.0216 C.3     
   9 C9             1.9687    -2.6803    -1.2798 C.3     
  10 C10            1.9912    -2.6929     1.2185 C.3     
  11 C11            1.9127     4.1120     1.2547 C.3     
  12 C12            1.8893     4.1246    -1.2437 C.3     
  13 C13           -1.3981    -0.4371     0.0131 C.2     
  14 N14           -2.1348     0.6308     0.0259 N.2     
  15 O15           -1.3108     1.7793     0.0187 O.3     
  16 H16            3.3097     1.9563    -0.0194 H       
  17 H17            3.3356    -0.5022    -0.0325 H       
  18 H18            0.1525     3.9680     0.0211 H       
  19 H19            0.2287    -2.5713    -0.0143 H       
  20 H20            2.9896    -2.2986    -1.2871 H       
  21 H21            1.9882    -3.7701    -1.2855 H       
  22 H22            1.4404    -2.3218    -2.1633 H       
  23 H23            1.4790    -2.3434     2.1149 H       
  24 H24            2.0107    -3.7828     1.2128 H       
  25 H25            3.0121    -2.3113     1.2113 H       
  26 H26            2.9411     3.7508     1.2432 H       
  27 H27            1.9105     5.2020     1.2602 H       
  28 H28            1.4080     3.7431     2.1476 H       
  29 H29            1.3679     3.7647    -2.1306 H       
  30 H30            1.8871     5.2146    -1.2381 H       
  31 H31            2.9177     3.7634    -1.2551 H       
  32 H32           -1.7517    -1.4576     0.0110 H       
@<TRIPOS>BOND
   1    1    2 ar
   2    1    3 ar
   3    1   15 1
   4    2   13 1
   5    2    6 ar
   6    3    4 ar
   7    3    7 1
   8    4    5 ar
   9    4   16 1
  10    5    6 ar
  11    5   17 1
  12    6    8 1
  13    7   11 1
  14    7   12 1
  15    7   18 1
  16    8    9 1
  17    8   10 1
  18    8   19 1
  19    9   20 1
  20    9   21 1
  21    9   22 1
  22   10   23 1
  23   10   24 1
  24   10   25 1
  25   11   26 1
  26   11   27 1
  27   11   28 1
  28   12   29 1
  29   12   30 1
  30   12   31 1
  31   13   14 2
  32   13   32 1
  33   14   15 1

#	End of record

