#	Name: ASD01915980
#	Creating user name:	WinNT
#	Creation time:	15. 06. 2019 20:06

#	Modifying user name:	WinNT
#	Modification time:	15. 06. 2019 20:06

#	Program:	/corina/corina34_cracker 3.40 0067  02.08.2006

@<TRIPOS>MOLECULE
ASD01915980
  44   47    0    0    0
SMALL
NO_CHARGES


@<TRIPOS>ATOM
   1 C1            -0.0167     1.3778     0.0096 C.2     
   2 C2             0.0021    -0.0041     0.0020 C.2     
   3 C3            -1.3061    -0.7781    -0.0015 C.3     
   4 C4            -2.3693     0.0496     0.7180 C.3     
   5 N5            -2.4010     1.4359     0.2672 N.am    
   6 C6            -1.2676     2.1378     0.0349 C.2     
   7 O7            -1.2872     3.3419    -0.1440 O.2     
   8 S8             1.6346     1.9576    -0.0030 S.3     
   9 C9             2.2093     0.3463    -0.0096 C.2     
  10 N10            1.2158    -0.4933    -0.0052 N.2     
  11 C11            4.4732     1.0548    -0.0227 C.3     
  12 C12            5.8643     0.4753    -0.0329 C.ar    
  13 C13            6.4941     0.2123    -1.2352 C.ar    
  14 C14            6.5114     0.2126     1.1592 C.ar    
  15 C15            7.7918    -0.3208     1.1491 C.ar    
  16 C16            7.7706    -0.3195    -1.2479 C.ar    
  17 O17            3.5154    -0.0058    -0.0188 O.3     
  18 C18           -3.6399     2.0588     0.0686 C.ar    
  19 C19            8.4195    -0.5891    -0.0588 C.ar    
  20 C20           -4.2595     1.9961    -1.1746 C.ar    
  21 C21           -4.2537     2.7346     1.1141 C.ar    
  22 C22           -5.4755     3.3483     0.9165 C.ar    
  23 C23           -6.0892     3.2898    -0.3235 C.ar    
  24 C24           -5.4826     2.6121    -1.3675 C.ar    
  25 F25           -3.6672     1.3348    -2.1930 F       
  26 F26           -7.2842     3.8906    -0.5135 F       
  27 O27            8.4306    -0.5796     2.3204 O.3     
  28 C28            9.7471    -1.1285     2.2338 C.3     
  29 H29           -1.6194    -0.9615    -1.0292 H       
  30 H30           -1.1701    -1.7277     0.5162 H       
  31 H31           -3.3459    -0.4008     0.5408 H       
  32 H32           -2.1646     0.0319     1.7885 H       
  33 H33            4.3411     1.6669     0.8694 H       
  34 H34            4.3296     1.6707    -0.9105 H       
  35 H35            5.9882     0.4221    -2.1660 H       
  36 H36            6.0208     0.4227     2.0982 H       
  37 H37            8.2605    -0.5241    -2.1884 H       
  38 H38            9.4166    -1.0041    -0.0693 H       
  39 H39           -3.7765     2.7804     2.0819 H       
  40 H40           -5.9528     3.8741     1.7302 H       
  41 H41           -5.9628     2.5680    -2.3338 H       
  42 H42            9.7098    -2.0803     1.7040 H       
  43 H43           10.3942    -0.4372     1.6939 H       
  44 H44           10.1416    -1.2866     3.2376 H       
@<TRIPOS>BOND
   1    1    2 2
   2    1    8 1
   3    1    6 1
   4    2    3 1
   5    2   10 1
   6    3    4 1
   7    3   29 1
   8    3   30 1
   9    4    5 1
  10    4   31 1
  11    4   32 1
  12    5    6 am
  13    5   18 1
  14    6    7 2
  15    8    9 1
  16    9   10 2
  17    9   17 1
  18   11   12 1
  19   11   17 1
  20   11   33 1
  21   11   34 1
  22   12   13 ar
  23   12   14 ar
  24   13   16 ar
  25   13   35 1
  26   14   15 ar
  27   14   36 1
  28   15   19 ar
  29   15   27 1
  30   16   19 ar
  31   16   37 1
  32   18   20 ar
  33   18   21 ar
  34   19   38 1
  35   20   25 1
  36   20   24 ar
  37   21   22 ar
  38   21   39 1
  39   22   23 ar
  40   22   40 1
  41   23   24 ar
  42   23   26 1
  43   24   41 1
  44   27   28 1
  45   28   42 1
  46   28   43 1
  47   28   44 1

#	End of record

