#	Name: ASD01883407
#	Creating user name:	WinNT
#	Creation time:	15. 06. 2019 19:46

#	Modifying user name:	WinNT
#	Modification time:	15. 06. 2019 19:46

#	Program:	/corina/corina34_cracker 3.40 0067  02.08.2006

@<TRIPOS>MOLECULE
ASD01883407
  48   50    0    0    0
SMALL
NO_CHARGES


@<TRIPOS>ATOM
   1 N1            -0.0162     1.3424     0.0094 N.am    
   2 C2             0.0021    -0.0041     0.0020 C.2     
   3 C3            -1.2200    -0.7260     0.0103 C.2     
   4 C4            -2.4186    -0.0172     0.0260 C.2     
   5 C5            -2.3789     1.3778     0.0331 C.2     
   6 C6            -1.1865     2.0253     0.0299 C.2     
   7 O7             1.0648    -0.6011    -0.0121 O.2     
   8 C8            -1.2204    -2.1580     0.0021 C.1     
   9 N9            -1.2207    -3.2939    -0.0043 N.1     
  10 C10            1.2492     2.0805     0.0013 C.3     
  11 C11           -3.7381    -0.7452     0.0347 C.3     
  12 C12           -4.5225    -0.3677     1.2944 C.3     
  13 C13           -5.8859    -1.0622     1.2677 C.3     
  14 N14           -6.6239    -0.6485     0.0674 N.3     
  15 C15           -5.9127    -1.0426    -1.1554 C.3     
  16 C16           -4.5501    -0.3475    -1.2010 C.3     
  17 C17           -7.9117    -1.1558     0.0776 C.ar    
  18 C18            1.6760     2.3452    -1.4439 C.3     
  19 C19            2.9975     3.1162    -1.4524 C.3     
  20 C20            3.4243     3.3809    -2.8976 C.3     
  21 N21           -8.7229    -0.8812    -0.9333 N.ar    
  22 C22           -9.9595    -1.3502    -0.9545 C.ar    
  23 C23          -10.4024    -2.1369     0.0972 C.ar    
  24 C24           -9.5277    -2.4046     1.1385 C.ar    
  25 N25           -8.3021    -1.9089     1.0954 N.ar    
  26 H26           -3.2991     1.9430     0.0453 H       
  27 H27           -1.1699     3.1052     0.0358 H       
  28 H28            1.1196     3.0296     0.5215 H       
  29 H29            2.0163     1.4921     0.5047 H       
  30 H30           -3.5608    -1.8206     0.0246 H       
  31 H31           -3.9687    -0.6870     2.1772 H       
  32 H32           -4.6648     0.7125     1.3244 H       
  33 H33           -5.7429    -2.1427     1.2516 H       
  34 H34           -6.4526    -0.7842     2.1563 H       
  35 H35           -5.7696    -2.1231    -1.1601 H       
  36 H36           -6.4989    -0.7502    -2.0266 H       
  37 H37           -4.6929     0.7331    -1.2103 H       
  38 H38           -4.0160    -0.6523    -2.1010 H       
  39 H39            1.8056     1.3962    -1.9641 H       
  40 H40            0.9088     2.9337    -1.9473 H       
  41 H41            2.8679     4.0652    -0.9322 H       
  42 H42            3.7646     2.5278    -0.9490 H       
  43 H43            4.3658     3.9301    -2.9037 H       
  44 H44            3.5539     2.4319    -3.4178 H       
  45 H45            2.6571     3.9693    -3.4010 H       
  46 H46          -10.6163    -1.1227    -1.7811 H       
  47 H47          -11.4073    -2.5325     0.1053 H       
  48 H48           -9.8417    -3.0139     1.9732 H       
@<TRIPOS>BOND
   1    1    2 am
   2    1   10 1
   3    1    6 1
   4    2    3 1
   5    2    7 2
   6    3    4 2
   7    3    8 1
   8    4    5 1
   9    4   11 1
  10    5    6 2
  11    5   26 1
  12    6   27 1
  13    8    9 3
  14   10   18 1
  15   10   28 1
  16   10   29 1
  17   11   12 1
  18   11   16 1
  19   11   30 1
  20   12   13 1
  21   12   31 1
  22   12   32 1
  23   13   14 1
  24   13   33 1
  25   13   34 1
  26   14   15 1
  27   14   17 1
  28   15   16 1
  29   15   35 1
  30   15   36 1
  31   16   37 1
  32   16   38 1
  33   17   21 ar
  34   17   25 ar
  35   18   19 1
  36   18   39 1
  37   18   40 1
  38   19   20 1
  39   19   41 1
  40   19   42 1
  41   20   43 1
  42   20   44 1
  43   20   45 1
  44   21   22 ar
  45   22   23 ar
  46   22   46 1
  47   23   24 ar
  48   23   47 1
  49   24   25 ar
  50   24   48 1

#	End of record

