#	Name: ASD04590065
#	Creating user name:	WinNT
#	Creation time:	15. 06. 2019 20:50

#	Modifying user name:	WinNT
#	Modification time:	15. 06. 2019 20:50

#	Program:	/corina/corina34_cracker 3.40 0067  02.08.2006

@<TRIPOS>MOLECULE
ASD04590065
  41   43    0    0    0
SMALL
NO_CHARGES


@<TRIPOS>ATOM
   1 N1            -0.0768     1.2682    -0.0494 N.pl3   
   2 N2            -0.0362    -0.0145     0.0019 N.2     
   3 C3             1.1929    -0.4417    -0.2149 C.2     
   4 C4             2.0015     0.7057    -0.4235 C.2     
   5 C5             1.1589     1.7669    -0.3103 C.2     
   6 C6             1.6418    -1.8463    -0.2366 C.2     
   7 O7             2.8103    -2.1080    -0.4489 O.2     
   8 N8             0.7571    -2.8400    -0.0209 N.am    
   9 C9             1.1617    -4.1747    -0.1376 C.ar    
  10 C10            2.4396    -4.5508     0.2548 C.ar    
  11 C11            2.8368    -5.8684     0.1388 C.ar    
  12 C12            1.9618    -6.8143    -0.3684 C.ar    
  13 C13            0.6873    -6.4414    -0.7607 C.ar    
  14 C14            0.2839    -5.1259    -0.6406 C.ar    
  15 F15            2.3524    -8.1027    -0.4811 F       
  16 N16            3.3784     0.7383    -0.6894 N.am    
  17 C17            4.0032     1.9196    -0.8643 C.2     
  18 C18            5.4542     1.9539    -1.1444 C.ar    
  19 C19            6.1044     3.1757    -1.3260 C.ar    
  20 C20            7.4588     3.2006    -1.5867 C.ar    
  21 C21            8.1727     2.0182    -1.6683 C.ar    
  22 C22            7.5342     0.8038    -1.4897 C.ar    
  23 C23            6.1813     0.7649    -1.2228 C.ar    
  24 O24            3.3734     2.9569    -0.7916 O.2     
  25 C25            9.6520     2.0532    -1.9534 C.3     
  26 O26           10.3729     2.1260    -0.7217 O.3     
  27 H27           -0.8760     1.8035     0.0759 H       
  28 H28            1.4227     2.8094    -0.4095 H       
  29 H29           -0.1600    -2.6300     0.2151 H       
  30 H30            3.1225    -3.8133     0.6501 H       
  31 H31            3.8307    -6.1613     0.4435 H       
  32 H32            0.0065    -7.1806    -1.1564 H       
  33 H33           -0.7119    -4.8364    -0.9422 H       
  34 H34            3.8809    -0.0894    -0.7473 H       
  35 H35            5.5482     4.0993    -1.2630 H       
  36 H36            7.9630     4.1452    -1.7278 H       
  37 H37            8.0972    -0.1156    -1.5550 H       
  38 H38            5.6850    -0.1835    -1.0791 H       
  39 H39            9.9401     1.1493    -2.4901 H       
  40 H40            9.8841     2.9269    -2.5624 H       
  41 H41           11.3336     2.1519    -0.8291 H       
@<TRIPOS>BOND
   1    1    2 1
   2    1    5 1
   3    1   27 1
   4    2    3 2
   5    3    4 1
   6    3    6 1
   7    4    5 2
   8    4   16 1
   9    5   28 1
  10    6    7 2
  11    6    8 am
  12    8    9 1
  13    8   29 1
  14    9   10 ar
  15    9   14 ar
  16   10   11 ar
  17   10   30 1
  18   11   12 ar
  19   11   31 1
  20   12   13 ar
  21   12   15 1
  22   13   14 ar
  23   13   32 1
  24   14   33 1
  25   16   17 am
  26   16   34 1
  27   17   18 1
  28   17   24 2
  29   18   19 ar
  30   18   23 ar
  31   19   20 ar
  32   19   35 1
  33   20   21 ar
  34   20   36 1
  35   21   22 ar
  36   21   25 1
  37   22   23 ar
  38   22   37 1
  39   23   38 1
  40   25   26 1
  41   25   39 1
  42   25   40 1
  43   26   41 1

#	End of record

