#	Name: ASD03090116
#	Creating user name:	WinNT
#	Creation time:	15. 06. 2019 20:28

#	Modifying user name:	WinNT
#	Modification time:	15. 06. 2019 20:28

#	Program:	/corina/corina34_cracker 3.40 0067  02.08.2006

@<TRIPOS>MOLECULE
ASD03090116
  59   62    0    0    0
SMALL
NO_CHARGES


@<TRIPOS>ATOM
   1 C1            -0.9393     2.6689    -0.0016 C.2     
   2 C2            -1.1841     1.1822    -0.0288 C.3     
   3 O3             0.1957     3.0966     0.0070 O.2     
   4 N4            -1.9816     3.5234     0.0074 N.am    
   5 C5             0.1363     0.4558    -0.0410 C.ar    
   6 C6             0.7397     0.1016     1.1518 C.ar    
   7 C7             1.9497    -0.5641     1.1443 C.ar    
   8 C8             2.5606    -0.8777    -0.0633 C.ar    
   9 C9             1.9517    -0.5204    -1.2595 C.ar    
  10 C10            0.7389     0.1401    -1.2449 C.ar    
  11 N11            3.7846    -1.5505    -0.0745 N.pl3   
  12 C12            4.4274    -1.8805    -1.3489 C.3     
  13 C13            5.7256    -2.5991    -1.0855 C.ar    
  14 C14            5.7429    -3.9780    -0.9842 C.ar    
  15 C15            6.9315    -4.6392    -0.7428 C.ar    
  16 C16            8.1088    -3.9183    -0.6024 C.ar    
  17 C17            8.0887    -2.5347    -0.7050 C.ar    
  18 C18            6.8982    -1.8788    -0.9513 C.ar    
  19 O19            9.2793    -4.5663    -0.3645 O.3     
  20 C20            9.2365    -5.9108    -0.1721 C.ar    
  21 C21            9.0553    -6.7620    -1.2528 C.ar    
  22 C22            9.0127    -8.1284    -1.0545 C.ar    
  23 C23            9.1500    -8.6480     0.2195 C.ar    
  24 C24            9.3307    -7.8020     1.2981 C.ar    
  25 C25            9.3797    -6.4351     1.1046 C.ar    
  26 C26           -1.7580     4.8999     0.1463 C.ar    
  27 C27           -2.5784     5.8063    -0.5123 C.ar    
  28 C28           -2.3585     7.1622    -0.3758 C.ar    
  29 C29           -1.3164     7.6201     0.4212 C.ar    
  30 C30           -0.4961     6.7128     1.0804 C.ar    
  31 C31           -0.7197     5.3572     0.9471 C.ar    
  32 S32           -1.0350     9.3507     0.5954 S.3     
  33 C33            0.3979     9.4214     1.7055 C.3     
  34 F34            0.0782     8.8038     2.9194 F       
  35 F35            1.4786     8.7577     1.1149 F       
  36 H36           -1.7508     0.8910     0.8556 H       
  37 H37           -1.7494     0.9233    -0.9241 H       
  38 H38           -2.8865     3.1856    -0.0822 H       
  39 H39            0.2644     0.3461     2.0902 H       
  40 H40            2.4207    -0.8401     2.0761 H       
  41 H41            2.4239    -0.7628    -2.2001 H       
  42 H42            0.2626     0.4140    -2.1747 H       
  43 H43            4.2090    -1.7992     0.7615 H       
  44 H44            3.7683    -2.5232    -1.9326 H       
  45 H45            4.6258    -0.9636    -1.9039 H       
  46 H46            4.8262    -4.5386    -1.0935 H       
  47 H47            6.9443    -5.7161    -0.6630 H       
  48 H48            9.0037    -1.9714    -0.5961 H       
  49 H49            6.8827    -0.8022    -1.0353 H       
  50 H50            8.9474    -6.3567    -2.2480 H       
  51 H51            8.8717    -8.7915    -1.8953 H       
  52 H52            9.1157    -9.7166     0.3724 H       
  53 H53            9.4373    -8.2103     2.2922 H       
  54 H54            9.5250    -5.7748     1.9469 H       
  55 H55           -3.3883     5.4504    -1.1317 H       
  56 H56           -2.9961     7.8671    -0.8886 H       
  57 H57            0.3139     7.0682     1.7000 H       
  58 H58           -0.0845     4.6519     1.4625 H       
  59 H59            0.6660    10.4623     1.8869 H       
@<TRIPOS>BOND
   1    1    2 1
   2    1    3 2
   3    1    4 am
   4    2    5 1
   5    2   36 1
   6    2   37 1
   7    4   26 1
   8    4   38 1
   9    5    6 ar
  10    5   10 ar
  11    6    7 ar
  12    6   39 1
  13    7    8 ar
  14    7   40 1
  15    8    9 ar
  16    8   11 1
  17    9   10 ar
  18    9   41 1
  19   10   42 1
  20   11   12 1
  21   11   43 1
  22   12   13 1
  23   12   44 1
  24   12   45 1
  25   13   14 ar
  26   13   18 ar
  27   14   15 ar
  28   14   46 1
  29   15   16 ar
  30   15   47 1
  31   16   17 ar
  32   16   19 1
  33   17   18 ar
  34   17   48 1
  35   18   49 1
  36   19   20 1
  37   20   21 ar
  38   20   25 ar
  39   21   22 ar
  40   21   50 1
  41   22   23 ar
  42   22   51 1
  43   23   24 ar
  44   23   52 1
  45   24   25 ar
  46   24   53 1
  47   25   54 1
  48   26   27 ar
  49   26   31 ar
  50   27   28 ar
  51   27   55 1
  52   28   29 ar
  53   28   56 1
  54   29   30 ar
  55   29   32 1
  56   30   31 ar
  57   30   57 1
  58   31   58 1
  59   32   33 1
  60   33   34 1
  61   33   35 1
  62   33   59 1

#	End of record

