#	Name: ASD05730081
#	Creating user name:	WinNT
#	Creation time:	15. 06. 2019 21:02

#	Modifying user name:	WinNT
#	Modification time:	15. 06. 2019 21:02

#	Program:	/corina/corina34_cracker 3.40 0067  02.08.2006

@<TRIPOS>MOLECULE
ASD05730081
  65   69    0    0    0
SMALL
NO_CHARGES


@<TRIPOS>ATOM
   1 C1            -0.0614     1.5018     0.0401 C.3     
   2 C2            -0.0295    -0.0048     0.0239 C.ar    
   3 C3            -0.0257    -0.6819    -1.1818 C.ar    
   4 C4             0.0035    -2.0625    -1.2002 C.ar    
   5 C5             0.0290    -2.7710    -0.0057 C.ar    
   6 C6             0.0251    -2.0878     1.2037 C.ar    
   7 C7             0.0015    -0.7070     1.2149 C.ar    
   8 N8             0.0582    -4.1686    -0.0206 N.pl3   
   9 C9             0.7631    -4.8554     0.9492 C.ar    
  10 N10            0.6834    -6.1768     0.9800 N.ar    
  11 C11            1.3471    -6.8716     1.8971 C.ar    
  12 C12            2.1373    -6.1737     2.8360 C.ar    
  13 C13            2.1887    -4.7736     2.7612 C.ar    
  14 N14            1.5003    -4.1660     1.8130 N.ar    
  15 N15            1.2699    -8.2409     1.9368 N.am    
  16 C16            1.9443    -8.9404     2.8695 C.2     
  17 C17            2.7731    -8.2473     3.8581 C.2     
  18 C18            2.8573    -6.8811     3.8256 C.2     
  19 C19            0.4451    -8.9493     0.9549 C.3     
  20 C20            1.2916    -9.2856    -0.2745 C.3     
  21 O21            1.8641   -10.1557     2.8911 O.2     
  22 C22            3.5143    -9.0176     4.8841 C.ar    
  23 C23           -1.3112     1.9792     0.7849 C.3     
  24 C24            4.6708    -9.7164     4.5357 C.ar    
  25 C25            3.7568    -9.7613     7.1542 C.ar    
  26 C26            4.9001   -10.4567     6.8023 C.ar    
  27 C27            5.3572   -10.4321     5.4972 C.ar    
  28 C28            3.0622    -9.0426     6.2031 C.ar    
  29 C29            1.1837     2.0323     0.7561 C.3     
  30 C30            1.1158     3.5597     0.8230 C.3     
  31 N31           -0.0966     3.9659     1.5453 N.3     
  32 C32           -1.3068     3.5081     0.8509 C.3     
  33 S33            5.7811   -11.3719     8.0233 S.o2    
  34 O34            5.4681   -10.7175     9.2452 O.2     
  35 C35            5.0343   -13.0244     7.9767 C.3     
  36 O36            7.1150   -11.4135     7.5353 O.2     
  37 Cl37           5.2452    -9.6867     2.8978 Cl      
  38 H38           -0.0806     1.8767    -0.9832 H       
  39 H39           -0.0459    -0.1304    -2.1102 H       
  40 H40            0.0061    -2.5907    -2.1422 H       
  41 H41            0.0449    -2.6357     2.1342 H       
  42 H42           -0.0015    -0.1751     2.1548 H       
  43 H43           -0.4165    -4.6562    -0.7119 H       
  44 H44            2.7819    -4.2053     3.4622 H       
  45 H45            3.4632    -6.3519     4.5461 H       
  46 H46            0.0645    -9.8702     1.3969 H       
  47 H47           -0.3910    -8.3161     0.6582 H       
  48 H48            1.6722    -8.3647    -0.7164 H       
  49 H49            2.1277    -9.9188     0.0222 H       
  50 H50            0.6780    -9.8127    -1.0050 H       
  51 H51           -2.2018     1.6404     0.2557 H       
  52 H52           -1.3105     1.5713     1.7956 H       
  53 H53            3.4050    -9.7844     8.1751 H       
  54 H54            6.2523   -10.9738     5.2293 H       
  55 H55            2.1702    -8.5001     6.4796 H       
  56 H56            1.2237     1.6252     1.7665 H       
  57 H57            2.0756     1.7315     0.2064 H       
  58 H58            1.9940     3.9398     1.3449 H       
  59 H59            1.0898     3.9667    -0.1878 H       
  60 H60           -0.0785     3.6333     2.4978 H       
  61 H61           -1.3214     3.9154    -0.1600 H       
  62 H62           -2.1881     3.8507     1.3931 H       
  63 H63            5.1574   -13.4507     6.9811 H       
  64 H64            5.5244   -13.6653     8.7096 H       
  65 H65            3.9725   -12.9500     8.2114 H       
@<TRIPOS>BOND
   1    1    2 1
   2    1   29 1
   3    1   23 1
   4    1   38 1
   5    2    3 ar
   6    2    7 ar
   7    3    4 ar
   8    3   39 1
   9    4    5 ar
  10    4   40 1
  11    5    6 ar
  12    5    8 1
  13    6    7 ar
  14    6   41 1
  15    7   42 1
  16    8    9 1
  17    8   43 1
  18    9   10 ar
  19    9   14 ar
  20   10   11 ar
  21   11   12 ar
  22   11   15 1
  23   12   13 ar
  24   12   18 1
  25   13   14 ar
  26   13   44 1
  27   15   16 am
  28   15   19 1
  29   16   17 1
  30   16   21 2
  31   17   18 2
  32   17   22 1
  33   18   45 1
  34   19   20 1
  35   19   46 1
  36   19   47 1
  37   20   48 1
  38   20   49 1
  39   20   50 1
  40   22   28 ar
  41   22   24 ar
  42   23   32 1
  43   23   51 1
  44   23   52 1
  45   24   37 1
  46   24   27 ar
  47   25   26 ar
  48   25   28 ar
  49   25   53 1
  50   26   27 ar
  51   26   33 1
  52   27   54 1
  53   28   55 1
  54   29   30 1
  55   29   56 1
  56   29   57 1
  57   30   31 1
  58   30   58 1
  59   30   59 1
  60   31   32 1
  61   31   60 1
  62   32   61 1
  63   32   62 1
  64   33   34 2
  65   33   35 1
  66   33   36 2
  67   35   63 1
  68   35   64 1
  69   35   65 1

#	End of record

