#	Name: ASD00650001
#	Creating user name:	WinNT
#	Creation time:	15. 06. 2019 18:36

#	Modifying user name:	WinNT
#	Modification time:	15. 06. 2019 18:36

#	Program:	/corina/corina34_cracker 3.40 0067  02.08.2006

@<TRIPOS>MOLECULE
ASD00650001
  59   60    0    0    0
SMALL
NO_CHARGES


@<TRIPOS>ATOM
   1 N1             1.5509    -4.7309     3.8269 N.am    
   2 C2             1.3266    -4.5238     2.5181 C.2     
   3 N3             1.7598    -3.4225     1.8848 N.am    
   4 C4             2.4517    -2.4539     2.5382 C.2     
   5 C5             2.7164    -2.6039     3.8865 C.2     
   6 C6             2.2301    -3.8211     4.5567 C.2     
   7 C7             3.4622    -1.5789     4.6290 C.2     
   8 O8             3.7095    -1.7452     5.9437 O.3     
   9 O9             3.8564    -0.5808     4.0578 O.2     
  10 O10            2.4355    -4.0027     5.7422 O.2     
  11 O11            0.7119    -5.3614     1.8871 O.2     
  12 C12            1.4800    -3.2619     0.4557 C.3     
  13 O13            0.0661    -3.4087     0.2006 O.3     
  14 C14           -0.0359    -3.7287    -1.2040 C.3     
  15 C15            1.1267    -4.7104    -1.4706 C.3     
  16 C16            2.1469    -4.3962    -0.3536 C.3     
  17 C17           -1.3784    -4.3998    -1.5013 C.3     
  18 N18           -1.4305    -4.7829    -2.9144 N.am    
  19 C19           -2.2310    -5.7925    -3.3097 C.2     
  20 C20           -2.2846    -6.1866    -4.7633 C.3     
  21 C21           -3.1956    -5.2186    -5.5209 C.3     
  22 C22           -3.3497    -5.6902    -6.9682 C.3     
  23 C23           -4.3576    -4.7949    -7.6917 C.3     
  24 O24           -4.4160    -5.1668    -9.0941 O.3     
  25 C25           -5.2617    -4.4702    -9.8765 C.2     
  26 C26           -2.4985    -3.4377    -1.2000 C.2     
  27 O27            3.3830    -3.9506    -0.9153 O.3     
  28 O28            1.7016    -4.4684    -2.7563 O.3     
  29 H29            0.0794    -2.8285    -1.8077 H       
  30 O30           -2.9504    -2.7424    -2.0787 O.2     
  31 O31           -2.9941    -3.3532     0.0446 O.3     
  32 O32           -2.9080    -6.3840    -2.4957 O.2     
  33 N33           -2.8145    -7.5516    -4.8814 N.3     
  34 O34           -4.4787    -5.1817    -4.8928 O.3     
  35 O35           -3.8164    -7.0408    -6.9820 O.3     
  36 N36           -5.3641    -4.7648   -11.1877 N.am    
  37 O37           -5.9327    -3.5760    -9.4005 O.2     
  38 H38            1.2189    -5.5378     4.2508 H       
  39 H39            2.7919    -1.5756     2.0098 H       
  40 H40            4.2039    -1.0438     6.3896 H       
  41 H41            1.8294    -2.2896     0.1083 H       
  42 H42            0.7813    -5.7414    -1.3935 H       
  43 H43            2.3059    -5.2719     0.2758 H       
  44 H44           -1.4858    -5.2886    -0.8797 H       
  45 H45           -0.8890    -4.3098    -3.5654 H       
  46 H46           -1.2812    -6.1484    -5.1874 H       
  47 H47           -2.7563    -4.2212    -5.5085 H       
  48 H48           -2.3855    -5.6338    -7.4733 H       
  49 H49           -5.3426    -4.9191    -7.2416 H       
  50 H50           -4.0469    -3.7538    -7.6046 H       
  51 H51            3.8153    -4.6036    -1.4827 H       
  52 H52            2.4367    -5.0571    -2.9756 H       
  53 H53           -3.7120    -2.7217     0.1893 H       
  54 H54           -2.1964    -8.2185    -4.4440 H       
  55 H55           -3.7445    -7.6132    -4.4949 H       
  56 H56           -4.9291    -6.0370    -4.8678 H       
  57 H57           -4.6717    -7.1658    -6.5486 H       
  58 H58           -4.8285    -5.4787   -11.5677 H       
  59 H59           -5.9734    -4.2629   -11.7514 H       
@<TRIPOS>BOND
   1    1    2 am
   2    1    6 am
   3    1   38 1
   4    2    3 am
   5    2   11 2
   6    3    4 1
   7    3   12 1
   8    4    5 2
   9    4   39 1
  10    5    6 1
  11    5    7 1
  12    6   10 2
  13    7    8 1
  14    7    9 2
  15    8   40 1
  16   12   13 1
  17   12   16 1
  18   12   41 1
  19   13   14 1
  20   14   17 1
  21   14   29 1
  22   14   15 1
  23   15   16 1
  24   15   28 1
  25   15   42 1
  26   16   27 1
  27   16   43 1
  28   17   18 1
  29   17   26 1
  30   17   44 1
  31   18   19 am
  32   18   45 1
  33   19   20 1
  34   19   32 2
  35   20   21 1
  36   20   33 1
  37   20   46 1
  38   21   22 1
  39   21   34 1
  40   21   47 1
  41   22   23 1
  42   22   35 1
  43   22   48 1
  44   23   24 1
  45   23   49 1
  46   23   50 1
  47   24   25 1
  48   25   36 am
  49   25   37 2
  50   26   30 2
  51   26   31 1
  52   27   51 1
  53   28   52 1
  54   31   53 1
  55   33   54 1
  56   33   55 1
  57   34   56 1
  58   35   57 1
  59   36   58 1
  60   36   59 1

#	End of record

