#	Name: ASD07931652
#	Creating user name:	WinNT
#	Creation time:	15. 06. 2019 21:13

#	Modifying user name:	WinNT
#	Modification time:	15. 06. 2019 21:13

#	Program:	/corina/corina34_cracker 3.40 0067  02.08.2006

@<TRIPOS>MOLECULE
ASD07931652
  73   80    0    0    0
SMALL
NO_CHARGES


@<TRIPOS>ATOM
   1 C1             0.0108     2.3257    -0.3105 C.3     
   2 N2            -5.6890     3.6587    -7.7917 N.pl3   
   3 C3             2.1402     1.3110    -1.1665 C.ar    
   4 N4             1.4655     0.9628    -2.3423 N.am    
   5 N5             0.7122    -0.2011    -2.5156 N.2     
   6 C6             0.2016    -0.2542    -3.7123 C.2     
   7 C7             0.6321     0.9674    -4.4299 C.2     
   8 C8             1.4451     1.7067    -3.4692 C.2     
   9 O9             2.0000     2.7783    -3.6501 O.2     
  10 C10           -0.6521    -1.2040    -4.4504 C.ar    
  11 C11           -1.0009    -0.8945    -5.7750 C.ar    
  12 N12           -0.5496     0.2742    -6.3658 N.pl3   
  13 C13            0.2270     1.1634    -5.7269 C.2     
  14 C14           -1.1080    -2.3819    -3.8621 C.ar    
  15 C15           -1.9058    -3.2456    -4.5881 C.ar    
  16 C16           -2.2510    -2.9430    -5.8951 C.ar    
  17 C17           -1.8060    -1.7780    -6.4889 C.ar    
  18 C18           -0.9386     0.5531    -7.7504 C.3     
  19 C19           -2.1999     1.3777    -7.7615 C.ar    
  20 C20           -2.1242     2.7529    -7.8849 C.ar    
  21 C21           -3.2785     3.5113    -7.8954 C.ar    
  22 C22           -4.5157     2.8916    -7.7818 C.ar    
  23 C23           -4.5885     1.5106    -7.6580 C.ar    
  24 C24           -3.4310     0.7571    -7.6539 C.ar    
  25 C25           -6.9510     3.1840    -7.6895 C.2     
  26 F26           -2.1510    -1.4964    -7.7644 F       
  27 C27           -7.7940     4.2413    -7.7405 C.2     
  28 C28           -7.0229     5.4007    -7.8783 C.2     
  29 N29           -5.7613     5.0532    -7.9030 N.2     
  30 C30            3.4838     0.9939    -1.0151 C.ar    
  31 C31            4.1468     1.3394     0.1463 C.ar    
  32 C32            3.4741     1.9998     1.1579 C.ar    
  33 C33            2.1360     2.3174     1.0101 C.ar    
  34 C34            1.4688     1.9796    -0.1506 C.ar    
  35 N35           -0.8009     1.1115    -0.1524 N.3     
  36 F36           -0.7712    -2.6785    -2.5878 F       
  37 C37           -0.6709     0.5651     1.2021 C.3     
  38 C38           -2.2150     1.3787    -0.4601 C.3     
  39 C39           -2.9336     0.0411    -0.6400 C.3     
  40 C40           -2.6366    -0.8637     0.5282 C.ar    
  41 C41           -1.5822    -0.6206     1.3819 C.ar    
  42 C42           -3.4531    -1.9652     0.7360 C.ar    
  43 C43           -3.2146    -2.8208     1.7926 C.ar    
  44 C44           -2.1555    -2.5788     2.6479 C.ar    
  45 C45           -1.3424    -1.4829     2.4420 C.ar    
  46 H46           -0.2749     3.0549     0.4477 H       
  47 H47           -0.1559     2.7477    -1.3015 H       
  48 H48            0.5431     2.0553    -6.2476 H       
  49 H49           -2.2610    -4.1595    -4.1353 H       
  50 H50           -2.8744    -3.6243    -6.4550 H       
  51 H51           -0.1403     1.1035    -8.2482 H       
  52 H52           -1.1140    -0.3863    -8.2748 H       
  53 H53           -1.1615     3.2344    -7.9728 H       
  54 H54           -3.2187     4.5853    -7.9914 H       
  55 H55           -5.5495     1.0258    -7.5696 H       
  56 H56           -3.4870    -0.3172    -7.5580 H       
  57 H57           -7.2352     2.1472    -7.5861 H       
  58 H58           -8.8717     4.1980    -7.6849 H       
  59 H59           -7.4030     6.4092    -7.9474 H       
  60 H60            4.0096     0.4775    -1.8045 H       
  61 H61            5.1916     1.0931     0.2646 H       
  62 H62            3.9947     2.2685     2.0652 H       
  63 H63            1.6133     2.8327     1.8024 H       
  64 H64            0.3608     0.2550     1.3681 H       
  65 H65           -0.9337     1.3348     1.9278 H       
  66 H66           -2.6704     1.9314     0.3615 H       
  67 H67           -2.2863     1.9593    -1.3798 H       
  68 H68           -4.0082     0.2130    -0.7005 H       
  69 H69           -2.5919    -0.4323    -1.5604 H       
  70 H70           -4.2802    -2.1544     0.0678 H       
  71 H71           -3.8538    -3.6767     1.9511 H       
  72 H72           -1.9651    -3.2460     3.4755 H       
  73 H73           -0.5153    -1.2948     3.1105 H       
@<TRIPOS>BOND
   1    1   35 1
   2    1   34 1
   3    1   46 1
   4    1   47 1
   5    2   25 1
   6    2   22 1
   7    2   29 1
   8    3    4 1
   9    3   30 ar
  10    3   34 ar
  11    4    5 1
  12    4    8 am
  13    5    6 2
  14    6    7 1
  15    6   10 1
  16    7    8 1
  17    7   13 2
  18    8    9 2
  19   10   11 ar
  20   10   14 ar
  21   11   12 1
  22   11   17 ar
  23   12   13 1
  24   12   18 1
  25   13   48 1
  26   14   15 ar
  27   14   36 1
  28   15   16 ar
  29   15   49 1
  30   16   17 ar
  31   16   50 1
  32   17   26 1
  33   18   19 1
  34   18   51 1
  35   18   52 1
  36   19   20 ar
  37   19   24 ar
  38   20   21 ar
  39   20   53 1
  40   21   22 ar
  41   21   54 1
  42   22   23 ar
  43   23   24 ar
  44   23   55 1
  45   24   56 1
  46   25   27 2
  47   25   57 1
  48   27   28 1
  49   27   58 1
  50   28   29 2
  51   28   59 1
  52   30   31 ar
  53   30   60 1
  54   31   32 ar
  55   31   61 1
  56   32   33 ar
  57   32   62 1
  58   33   34 ar
  59   33   63 1
  60   35   38 1
  61   35   37 1
  62   37   41 1
  63   37   64 1
  64   37   65 1
  65   38   39 1
  66   38   66 1
  67   38   67 1
  68   39   40 1
  69   39   68 1
  70   39   69 1
  71   40   41 ar
  72   40   42 ar
  73   41   45 ar
  74   42   43 ar
  75   42   70 1
  76   43   44 ar
  77   43   71 1
  78   44   45 ar
  79   44   72 1
  80   45   73 1

#	End of record

