#	Name: ASD03180006
#	Creating user name:	WinNT
#	Creation time:	15. 06. 2019 20:33

#	Modifying user name:	WinNT
#	Modification time:	15. 06. 2019 20:33

#	Program:	/corina/corina34_cracker 3.40 0067  02.08.2006

@<TRIPOS>MOLECULE
ASD03180006
  38   40    0    0    0
SMALL
NO_CHARGES


@<TRIPOS>ATOM
   1 C1             0.0753     1.2776     0.6832 C.ar    
   2 C2             0.0001     0.0055     0.1455 C.ar    
   3 C3             1.1118    -0.5650    -0.4467 C.ar    
   4 C4             2.3015     0.1343    -0.5030 C.ar    
   5 C5             2.3804     1.4122     0.0356 C.ar    
   6 C6             1.2614     1.9824     0.6299 C.ar    
   7 C7             3.5129    -0.4887    -1.1477 C.3     
   8 C8             4.3770    -1.1532    -0.0742 C.3     
   9 N9             3.5828     2.1224    -0.0193 N.pl3   
  10 C10            3.5673     3.5051    -0.1168 C.2     
  11 C11            4.4025     5.5838    -0.1611 C.2     
  12 N12            4.6106     4.2726    -0.0456 N.2     
  13 S13            2.1292     4.4905    -0.3641 S.3     
  14 C14            3.1194     5.9477    -0.3415 C.2     
  15 C15            5.5038     6.5692    -0.0981 C.2     
  16 S16            5.3414     8.3182    -0.2373 S.3     
  17 C17            7.0306     8.5002    -0.0485 C.2     
  18 N18            7.5933     7.3481     0.0975 N.2     
  19 C19            6.8124     6.2894     0.0821 C.2     
  20 C20            7.7595     9.8192    -0.0524 C.3     
  21 C21            7.3340     4.8851     0.2470 C.3     
  22 H22           -0.7960     1.7219     1.1414 H       
  23 H23           -0.9289    -0.5436     0.1886 H       
  24 H24            1.0498    -1.5586    -0.8653 H       
  25 H25            1.3193     2.9758     1.0496 H       
  26 H26            3.1939    -1.2377    -1.8725 H       
  27 H27            4.0923     0.2833    -1.6542 H       
  28 H28            5.2532    -1.6037    -0.5405 H       
  29 H29            4.6960    -0.4041     0.6506 H       
  30 H30            3.7976    -1.9251     0.4323 H       
  31 H31            4.4282     1.6478     0.0108 H       
  32 H32            2.7587     6.9594    -0.4544 H       
  33 H33            7.8139    10.2073     0.9647 H       
  34 H34            8.7677     9.6760    -0.4411 H       
  35 H35            7.2240    10.5283    -0.6837 H       
  36 H36            7.5841     4.4733    -0.7307 H       
  37 H37            8.2255     4.9000     0.8740 H       
  38 H38            6.5695     4.2665     0.7170 H       
@<TRIPOS>BOND
   1    1    2 ar
   2    1    6 ar
   3    1   22 1
   4    2    3 ar
   5    2   23 1
   6    3    4 ar
   7    3   24 1
   8    4    5 ar
   9    4    7 1
  10    5    6 ar
  11    5    9 1
  12    6   25 1
  13    7    8 1
  14    7   26 1
  15    7   27 1
  16    8   28 1
  17    8   29 1
  18    8   30 1
  19    9   10 1
  20    9   31 1
  21   10   13 1
  22   10   12 2
  23   11   12 1
  24   11   14 2
  25   11   15 1
  26   13   14 1
  27   14   32 1
  28   15   16 1
  29   15   19 2
  30   16   17 1
  31   17   18 2
  32   17   20 1
  33   18   19 1
  34   19   21 1
  35   20   33 1
  36   20   34 1
  37   20   35 1
  38   21   36 1
  39   21   37 1
  40   21   38 1

#	End of record

