#	Name: ASD01151108
#	Creating user name:	WinNT
#	Creation time:	15. 06. 2019 19:05

#	Modifying user name:	WinNT
#	Modification time:	15. 06. 2019 19:05

#	Program:	/corina/corina34_cracker 3.40 0067  02.08.2006

@<TRIPOS>MOLECULE
ASD01151108
  54   58    0    0    0
SMALL
NO_CHARGES


@<TRIPOS>ATOM
   1 C1            -0.0173     1.4248     0.0099 C.3     
   2 O2             0.0021    -0.0041     0.0020 O.3     
   3 C3            -1.2010    -0.6379     0.0101 C.ar    
   4 C4            -2.3743     0.1035     0.0195 C.ar    
   5 C5            -3.6007    -0.5337     0.0277 C.ar    
   6 C6            -3.6653    -1.9172     0.0267 C.ar    
   7 O7            -4.8720    -2.5426     0.0348 O.3     
   8 C8            -6.0338    -1.7106     0.0442 C.3     
   9 C9            -2.4863    -2.6695     0.0168 C.ar    
  10 C10           -1.2531    -2.0215     0.0032 C.ar    
  11 C11           -2.5487    -4.1504     0.0156 C.2     
  12 N12           -3.7119    -4.7587     0.0185 N.2     
  13 N13           -3.8285    -6.1503     0.0177 N.am    
  14 C14           -5.1609    -6.7593     0.0211 C.3     
  15 H15           -5.0642    -7.8450     0.0199 H       
  16 C16           -5.9209    -6.3164     1.2729 C.3     
  17 C17           -5.9167    -6.3209    -1.2068 C.ar    
  18 C18           -5.8126    -5.0168    -1.6533 C.ar    
  19 C19           -6.5055    -4.6142    -2.7794 C.ar    
  20 C20           -7.3035    -5.5166    -3.4598 C.ar    
  21 Cl21          -8.1737    -5.0118    -4.8746 Cl      
  22 C22           -7.4074    -6.8217    -3.0124 C.ar    
  23 C23           -6.7095    -7.2246    -1.8894 C.ar    
  24 C24           -2.7362    -6.9464     0.0133 C.2     
  25 O25           -2.8534    -8.1598     0.0118 O.2     
  26 C26           -1.4205    -6.3315     0.0100 C.2     
  27 C27           -0.0288    -6.7674     0.0052 C.2     
  28 N28            0.6738    -5.6694     0.0043 N.2     
  29 O29           -0.0076    -4.6687     0.0077 O.3     
  30 C30           -1.3184    -4.9321     0.0053 C.2     
  31 C31            0.4866    -8.1836     0.0023 C.3     
  32 C32            1.9884    -8.3883    -0.2062 C.3     
  33 C33            1.3696    -8.6164     1.1744 C.3     
  34 H34            1.0053     1.8021     0.0021 H       
  35 H35           -0.5445     1.7859    -0.8732 H       
  36 H36           -0.5275     1.7763     0.9067 H       
  37 H37           -2.3287     1.1825     0.0207 H       
  38 H38           -4.5104     0.0483     0.0354 H       
  39 H39           -6.0236    -1.0823     0.9348 H       
  40 H40           -6.0365    -1.0803    -0.8451 H       
  41 H41           -6.9275    -2.3346     0.0500 H       
  42 H42           -0.3395    -2.5973    -0.0083 H       
  43 H43           -6.0177    -5.2307     1.2741 H       
  44 H44           -6.9123    -6.7695     1.2754 H       
  45 H45           -5.3743    -6.6334     2.1610 H       
  46 H46           -5.1899    -4.3123    -1.1220 H       
  47 H47           -6.4243    -3.5952    -3.1280 H       
  48 H48           -8.0304    -7.5265    -3.5429 H       
  49 H49           -6.7867    -8.2446    -1.5429 H       
  50 H50           -0.1869    -8.9281    -0.4222 H       
  51 H51            2.3032    -9.2677    -0.7681 H       
  52 H52            2.6037    -7.4988    -0.3412 H       
  53 H53            1.5778    -7.8768     1.9476 H       
  54 H54            1.2773    -9.6457     1.5208 H       
@<TRIPOS>BOND
   1    1    2 1
   2    1   34 1
   3    1   35 1
   4    1   36 1
   5    2    3 1
   6    3   10 ar
   7    3    4 ar
   8    4    5 ar
   9    4   37 1
  10    5    6 ar
  11    5   38 1
  12    6    7 1
  13    6    9 ar
  14    7    8 1
  15    8   39 1
  16    8   40 1
  17    8   41 1
  18    9   10 ar
  19    9   11 1
  20   10   42 1
  21   11   30 1
  22   11   12 2
  23   12   13 1
  24   13   14 1
  25   13   24 am
  26   14   15 1
  27   14   16 1
  28   14   17 1
  29   16   43 1
  30   16   44 1
  31   16   45 1
  32   17   23 ar
  33   17   18 ar
  34   18   19 ar
  35   18   46 1
  36   19   20 ar
  37   19   47 1
  38   20   21 1
  39   20   22 ar
  40   22   23 ar
  41   22   48 1
  42   23   49 1
  43   24   25 2
  44   24   26 1
  45   26   30 2
  46   26   27 1
  47   27   28 2
  48   27   31 1
  49   28   29 1
  50   29   30 1
  51   31   33 1
  52   31   32 1
  53   31   50 1
  54   32   33 1
  55   32   51 1
  56   32   52 1
  57   33   53 1
  58   33   54 1

#	End of record

