#	Name: ASD01881749
#	Creating user name:	WinNT
#	Creation time:	15. 06. 2019 19:43

#	Modifying user name:	WinNT
#	Modification time:	15. 06. 2019 19:43

#	Program:	/corina/corina34_cracker 3.40 0067  02.08.2006

@<TRIPOS>MOLECULE
ASD01881749
  36   39    0    0    0
SMALL
NO_CHARGES


@<TRIPOS>ATOM
   1 N1            -0.0154     1.2854     0.0235 N.pl3   
   2 N2             0.0015    -0.0025     0.0039 N.2     
   3 N3             1.2025    -0.4636    -0.0193 N.2     
   4 C4             2.0737     0.5655    -0.0156 C.ar    
   5 C5             1.2844     1.7309     0.0126 C.ar    
   6 C6             3.4666     0.6765    -0.0325 C.ar    
   7 C7             4.0484     1.9288    -0.0212 C.ar    
   8 C8             3.2565     3.0743     0.0068 C.ar    
   9 C9             1.8929     2.9792     0.0227 C.ar    
  10 O10            5.4033     2.0444    -0.0370 O.3     
  11 O11            7.3071     4.7374     1.2756 O.3     
  12 C12            6.0666     4.0218     1.2459 C.3     
  13 C13            5.9405     3.3642    -0.1452 C.3     
  14 C14            7.4170     3.3222    -0.6249 C.3     
  15 C15            7.9682     4.6261     0.0051 C.3     
  16 C16           -1.2130     2.1289     0.0470 C.3     
  17 C17           -1.6166     2.4013     1.4974 C.3     
  18 C18           -2.7809     3.3644     1.7377 C.3     
  19 C19           -2.9698     1.8635     1.9671 C.3     
  20 Br20           4.5461    -0.8756    -0.0698 Br      
  21 H21            3.7245     4.0476     0.0157 H       
  22 H22            1.2891     3.8744     0.0441 H       
  23 H23            6.0641     3.2539     2.0195 H       
  24 H24            5.2379     4.7116     1.4052 H       
  25 H25            5.3307     3.9761    -0.8097 H       
  26 H26            7.9334     2.4468    -0.2310 H       
  27 H27            7.4777     3.3554    -1.7127 H       
  28 H28            7.7253     5.4824    -0.6240 H       
  29 H29            9.0466     4.5522     0.1450 H       
  30 H30           -1.0021     3.0732    -0.4550 H       
  31 H31           -2.0273     1.6182    -0.4670 H       
  32 H32           -0.7998     2.4092     2.2191 H       
  33 H33           -2.7303     4.0056     2.6178 H       
  34 H34           -3.2594     3.8039     0.8625 H       
  35 H35           -3.5725     1.3156     1.2428 H       
  36 H36           -3.0434     1.5173     2.9980 H       
@<TRIPOS>BOND
   1    1    2 1
   2    1    5 1
   3    1   16 1
   4    2    3 2
   5    3    4 1
   6    4    5 ar
   7    4    6 ar
   8    5    9 ar
   9    6    7 ar
  10    6   20 1
  11    7    8 ar
  12    7   10 1
  13    8    9 ar
  14    8   21 1
  15    9   22 1
  16   10   13 1
  17   11   12 1
  18   11   15 1
  19   12   13 1
  20   12   23 1
  21   12   24 1
  22   13   14 1
  23   13   25 1
  24   14   15 1
  25   14   26 1
  26   14   27 1
  27   15   28 1
  28   15   29 1
  29   16   17 1
  30   16   30 1
  31   16   31 1
  32   17   18 1
  33   17   19 1
  34   17   32 1
  35   18   19 1
  36   18   33 1
  37   18   34 1
  38   19   35 1
  39   19   36 1

#	End of record

