#	Name: ASD00431056
#	Creating user name:	WinNT
#	Creation time:	15. 06. 2019 18:35

#	Modifying user name:	WinNT
#	Modification time:	15. 06. 2019 18:35

#	Program:	/corina/corina34_cracker 3.40 0067  02.08.2006

@<TRIPOS>MOLECULE
ASD00431056
  59   59    0    0    0
SMALL
NO_CHARGES


@<TRIPOS>ATOM
   1 C1             0.9938     1.0457     0.3282 C.3     
   2 C2             1.0307    -0.4861     0.2083 C.3     
   3 C3             2.0312    -1.0525     1.2096 C.3     
   4 C4             1.4938    -0.7216     2.5874 C.3     
   5 C5             1.8436     0.6931     3.0412 C.3     
   6 C6             3.2584     1.0588     2.5719 C.3     
   7 C7             3.3023     1.4469     1.1381 C.2     
   8 C8             2.4136     1.5418     0.1586 C.2     
   9 C9             4.6031     1.7999     0.7178 C.2     
  10 O10            5.0448     2.9057     0.9694 O.2     
  11 N11            2.7881     2.0996    -1.0305 N.pl3   
  12 C12            1.8561     2.1092    -2.1608 C.3     
  13 C13            2.4633     2.8779    -3.3060 C.2     
  14 C14            1.8213     3.8946    -3.8258 C.2     
  15 C15            2.3864     4.6083    -5.0268 C.3     
  16 C16            1.7648     4.0332    -6.3010 C.3     
  17 C17            2.3300     4.7469    -7.5020 C.2     
  18 C18            2.8549     4.0591    -8.4856 C.2     
  19 O19            5.3568     0.9110     0.0370 O.3     
  20 C20            7.3615     0.2023    -1.1117 C.3     
  21 C21            6.6631     1.3354    -0.3571 C.3     
  22 C22            0.5176     4.3505    -3.2229 C.3     
  23 C23            2.7282     2.5576    -8.5068 C.3     
  24 C24            3.5854     4.7694    -9.5959 C.3     
  25 H25            0.3587     1.4640    -0.4527 H       
  26 H26            0.6151     1.3323     1.3092 H       
  27 H27            0.0401    -0.8905     0.4166 H       
  28 H28            1.3310    -0.7641    -0.8019 H       
  29 H29            2.1100    -2.1329     1.0887 H       
  30 H30            3.0065    -0.5872     1.0672 H       
  31 H31            0.4091    -0.8281     2.5756 H       
  32 H32            1.9058    -1.4318     3.3043 H       
  33 H33            1.1281     1.3969     2.6160 H       
  34 H34            1.7982     0.7458     4.1290 H       
  35 H35            3.6250     1.8907     3.1734 H       
  36 H36            3.9131     0.2009     2.7248 H       
  37 H37            3.6711     2.4894    -1.1266 H       
  38 H38            1.6567     1.0850    -2.4760 H       
  39 H39            0.9230     2.5845    -1.8583 H       
  40 H40            3.4277     2.5907    -3.6981 H       
  41 H41            2.1570     5.6718    -4.9586 H       
  42 H42            3.4673     4.4709    -5.0557 H       
  43 H43            1.9942     2.9697    -6.3692 H       
  44 H44            0.6839     4.1706    -6.2721 H       
  45 H45            2.3022     5.8254    -7.5517 H       
  46 H46            6.7809    -0.0564    -1.9972 H       
  47 H47            8.3579     0.5260    -1.4123 H       
  48 H48            7.4431    -0.6699    -0.4631 H       
  49 H49            6.5815     2.2076    -1.0057 H       
  50 H50            7.2437     1.5941     0.5284 H       
  51 H51            0.7183     5.0298    -2.3943 H       
  52 H52           -0.0726     4.8660    -3.9805 H       
  53 H53           -0.0360     3.4855    -2.8576 H       
  54 H54            2.2320     2.2219    -7.5962 H       
  55 H55            2.1407     2.2547    -9.3736 H       
  56 H56            3.7204     2.1101    -8.5661 H       
  57 H57            4.6405     4.8591    -9.3375 H       
  58 H58            3.4848     4.1997   -10.5198 H       
  59 H59            3.1594     5.7632    -9.7337 H       
@<TRIPOS>BOND
   1    1    2 1
   2    1    8 1
   3    1   25 1
   4    1   26 1
   5    2    3 1
   6    2   27 1
   7    2   28 1
   8    3    4 1
   9    3   29 1
  10    3   30 1
  11    4    5 1
  12    4   31 1
  13    4   32 1
  14    5    6 1
  15    5   33 1
  16    5   34 1
  17    6    7 1
  18    6   35 1
  19    6   36 1
  20    7    8 2
  21    7    9 1
  22    8   11 1
  23    9   10 2
  24    9   19 1
  25   11   12 1
  26   11   37 1
  27   12   13 1
  28   12   38 1
  29   12   39 1
  30   13   14 2
  31   13   40 1
  32   14   15 1
  33   14   22 1
  34   15   16 1
  35   15   41 1
  36   15   42 1
  37   16   17 1
  38   16   43 1
  39   16   44 1
  40   17   18 2
  41   17   45 1
  42   18   23 1
  43   18   24 1
  44   19   21 1
  45   20   21 1
  46   20   46 1
  47   20   47 1
  48   20   48 1
  49   21   49 1
  50   21   50 1
  51   22   51 1
  52   22   52 1
  53   22   53 1
  54   23   54 1
  55   23   55 1
  56   23   56 1
  57   24   57 1
  58   24   58 1
  59   24   59 1

#	End of record

