#	Name: ASD01410963
#	Creating user name:	WinNT
#	Creation time:	15. 06. 2019 19:19

#	Modifying user name:	WinNT
#	Modification time:	15. 06. 2019 19:19

#	Program:	/corina/corina34_cracker 3.40 0067  02.08.2006

@<TRIPOS>MOLECULE
ASD01410963
  67   70    0    0    0
SMALL
NO_CHARGES


@<TRIPOS>ATOM
   1 C1            -0.8269     1.4965     1.0982 C.ar    
   2 C2            -0.6639     0.5683     0.0728 C.ar    
   3 C3            -1.7576    -0.1032    -0.4412 C.ar    
   4 C4            -3.0262     0.1445     0.0626 C.ar    
   5 C5            -3.1960     1.0792     1.0963 C.ar    
   6 C6            -2.0833     1.7495     1.6133 C.ar    
   7 O7             0.2552     2.1519     1.5978 O.3     
   8 C8             0.7130     3.2344     0.9202 C.ar    
   9 N9            -4.1282    -0.5319    -0.4558 N.am    
  10 C10           -4.6495    -1.5812     0.2104 C.2     
  11 C11           -4.1630    -1.9112     1.5643 C.ar    
  12 O12           -5.5204    -2.2559    -0.3039 O.2     
  13 C13           -2.8226    -1.7030     1.8986 C.ar    
  14 C14           -4.5793    -2.7345     3.7866 C.ar    
  15 C15           -3.2492    -2.5303     4.1065 C.ar    
  16 C16           -2.3745    -2.0127     3.1645 C.ar    
  17 Br17          -2.6231    -2.9514     5.8405 Br      
  18 N18            0.0405     3.6848    -0.1263 N.ar    
  19 C19           -4.7205    -0.1027    -1.7252 C.3     
  20 C20           -5.1842    -1.3300    -2.5124 C.3     
  21 C21            1.8801     3.8627     1.3353 C.ar    
  22 C22            2.3364     4.9662     0.6353 C.ar    
  23 C23            1.6053     5.4039    -0.4602 C.ar    
  24 C24            0.4503     4.7341    -0.8130 C.ar    
  25 F25            0.5690     0.3232    -0.4223 F       
  26 C26           -5.0431    -2.4285     2.5205 C.ar    
  27 C27            2.0636     6.6011    -1.2525 C.3     
  28 C28           -5.9186     0.8073    -1.4470 C.3     
  29 N29            2.9504     6.1616    -2.3326 N.pl3   
  30 N30            2.5581     5.8368    -3.5134 N.2     
  31 C31           -4.1241    -2.4289    -2.4148 C.3     
  32 O32           -5.4613     2.1436    -1.2293 O.3     
  33 C33           -6.5073     3.0791    -0.9594 C.3     
  34 C34            3.6068     5.4936    -4.2265 C.2     
  35 C35            4.7082     5.6329    -3.3789 C.2     
  36 N36            4.2278     6.0532    -2.2306 N.2     
  37 F37           -6.3422    -2.6280     2.2082 F       
  38 C38            2.6392     3.3501     2.5320 C.3     
  39 F39            3.7692     4.1472     2.7439 F       
  40 F40            1.8160     3.3983     3.6621 F       
  41 F41            3.0372     2.0290     2.3009 F       
  42 C42           -4.5390     1.3487     1.6367 C.2     
  43 O43           -5.4847     0.6749     1.2783 O.2     
  44 O44           -4.7194     2.3427     2.5289 O.3     
  45 H45           -1.6242    -0.8215    -1.2366 H       
  46 H46           -2.2069     2.4696     2.4087 H       
  47 H47           -2.1386    -1.3004     1.1661 H       
  48 H48           -5.2557    -3.1382     4.5255 H       
  49 H49           -1.3383    -1.8518     3.4230 H       
  50 H50           -3.9773     0.4426    -2.3069 H       
  51 H51           -6.1241    -1.6940    -2.0975 H       
  52 H52           -5.3298    -1.0574    -3.5577 H       
  53 H53            3.2406     5.4752     0.9351 H       
  54 H54           -0.1222     5.0707    -1.6647 H       
  55 H55            1.1976     7.1089    -1.6773 H       
  56 H56            2.6012     7.2864    -0.5971 H       
  57 H57           -6.5946     0.7894    -2.3018 H       
  58 H58           -6.4448     0.4543    -0.5601 H       
  59 H59           -4.0204    -2.7425    -1.3761 H       
  60 H60           -4.4271    -3.2811    -3.0231 H       
  61 H61           -3.1695    -2.0460    -2.7758 H       
  62 H62           -7.0457     2.7732    -0.0624 H       
  63 H63           -6.0784     4.0693    -0.8058 H       
  64 H64           -7.1956     3.1083    -1.8041 H       
  65 H65            3.6154     5.1698    -5.2568 H       
  66 H66            5.7431     5.4391    -3.6195 H       
  67 H67           -5.6189     2.4817     2.8553 H       
@<TRIPOS>BOND
   1    1    2 ar
   2    1    7 1
   3    1    6 ar
   4    2    3 ar
   5    2   25 1
   6    3    4 ar
   7    3   45 1
   8    4    5 ar
   9    4    9 1
  10    5    6 ar
  11    5   42 1
  12    6   46 1
  13    7    8 1
  14    8   21 ar
  15    8   18 ar
  16    9   10 am
  17    9   19 1
  18   10   11 1
  19   10   12 2
  20   11   13 ar
  21   11   26 ar
  22   13   16 ar
  23   13   47 1
  24   14   15 ar
  25   14   26 ar
  26   14   48 1
  27   15   16 ar
  28   15   17 1
  29   16   49 1
  30   18   24 ar
  31   19   20 1
  32   19   28 1
  33   19   50 1
  34   20   31 1
  35   20   51 1
  36   20   52 1
  37   21   22 ar
  38   21   38 1
  39   22   23 ar
  40   22   53 1
  41   23   24 ar
  42   23   27 1
  43   24   54 1
  44   26   37 1
  45   27   29 1
  46   27   55 1
  47   27   56 1
  48   28   32 1
  49   28   57 1
  50   28   58 1
  51   29   30 1
  52   29   36 1
  53   30   34 2
  54   31   59 1
  55   31   60 1
  56   31   61 1
  57   32   33 1
  58   33   62 1
  59   33   63 1
  60   33   64 1
  61   34   35 1
  62   34   65 1
  63   35   36 2
  64   35   66 1
  65   38   39 1
  66   38   40 1
  67   38   41 1
  68   42   43 2
  69   42   44 1
  70   44   67 1

#	End of record

