#	Name: ASD01148761
#	Creating user name:	WinNT
#	Creation time:	15. 06. 2019 19:03

#	Modifying user name:	WinNT
#	Modification time:	15. 06. 2019 19:03

#	Program:	/corina/corina34_cracker 3.40 0067  02.08.2006

@<TRIPOS>MOLECULE
ASD01148761
  54   56    0    0    0
SMALL
NO_CHARGES


@<TRIPOS>ATOM
   1 C1            -0.1322     1.1512     0.1619 C.ar    
   2 C2            -0.0338    -0.2175     0.3322 C.ar    
   3 C3             1.2007    -0.8346     0.2783 C.ar    
   4 C4             2.3436    -0.0791     0.0528 C.ar    
   5 C5             2.2415     1.2951    -0.1179 C.ar    
   6 C6             1.0042     1.9064    -0.0628 C.ar    
   7 S7            -1.7097     1.9337     0.2240 S.o2    
   8 O8            -1.5836     3.1489    -0.5017 O.2     
   9 O9            -2.6668     0.9332    -0.0957 O.2     
  10 N10           -1.9849     2.3573     1.8011 N.am    
  11 C11           -1.2016     3.2772     2.3984 C.2     
  12 O12           -0.2951     3.7947     1.7808 O.2     
  13 C13           -1.4521     3.6626     3.8335 C.3     
  14 C14           -0.4304     4.7169     4.2642 C.3     
  15 N15            3.5973    -0.7020    -0.0020 N.pl3   
  16 C16            3.9995    -1.5382    -0.9781 C.2     
  17 C17            5.2888    -1.9534    -0.6949 C.2     
  18 C18            5.6630    -1.2950     0.5605 C.2     
  19 C19            4.5952    -0.5426     0.9298 C.2     
  20 C20            6.1136    -2.8668    -1.4894 C.2     
  21 O21            5.6751    -3.3430    -2.5158 O.2     
  22 C22            7.5067    -3.2150    -1.0321 C.3     
  23 C23            8.1462    -4.1789    -2.0335 C.3     
  24 C24            3.1835    -1.9520    -2.1756 C.3     
  25 C25            4.5169     0.3061     2.1385 C.ar    
  26 C26            3.2745     0.6682     2.6608 C.ar    
  27 C27            3.2076     1.4596     3.7887 C.ar    
  28 C28            4.3701     1.8949     4.4022 C.ar    
  29 C29            5.6057     1.5392     3.8882 C.ar    
  30 C30            5.6850     0.7430     2.7644 C.ar    
  31 Cl31           4.2782     2.8910     5.8210 Cl      
  32 H32           -0.9231    -0.8046     0.5079 H       
  33 H33            1.2770    -1.9036     0.4118 H       
  34 H34            3.1287     1.8854    -0.2934 H       
  35 H35            0.9241     2.9751    -0.1958 H       
  36 H36           -2.7099     1.9434     2.2950 H       
  37 H37           -2.4581     4.0710     3.9298 H       
  38 H38           -1.3552     2.7820     4.4685 H       
  39 H39           -0.6116     4.9957     5.3023 H       
  40 H40            0.5756     4.3085     4.1680 H       
  41 H41           -0.5273     5.5975     3.6293 H       
  42 H42            6.6026    -1.3872     1.0849 H       
  43 H43            8.1059    -2.3067    -0.9687 H       
  44 H44            7.4595    -3.6883    -0.0514 H       
  45 H45            9.1538    -4.4308    -1.7027 H       
  46 H46            7.5469    -5.0872    -2.0969 H       
  47 H47            8.1934    -3.7056    -3.0142 H       
  48 H48            3.3596    -1.2540    -2.9941 H       
  49 H49            3.4752    -2.9557    -2.4849 H       
  50 H50            2.1253    -1.9456    -1.9140 H       
  51 H51            2.3671     0.3298     2.1826 H       
  52 H52            2.2467     1.7405     4.1938 H       
  53 H53            6.5091     1.8819     4.3707 H       
  54 H54            6.6493     0.4625     2.3671 H       
@<TRIPOS>BOND
   1    1    2 ar
   2    1    6 ar
   3    1    7 1
   4    2    3 ar
   5    2   32 1
   6    3    4 ar
   7    3   33 1
   8    4    5 ar
   9    4   15 1
  10    5    6 ar
  11    5   34 1
  12    6   35 1
  13    7    8 2
  14    7    9 2
  15    7   10 am
  16   10   11 am
  17   10   36 1
  18   11   12 2
  19   11   13 1
  20   13   14 1
  21   13   37 1
  22   13   38 1
  23   14   39 1
  24   14   40 1
  25   14   41 1
  26   15   16 1
  27   15   19 1
  28   16   17 2
  29   16   24 1
  30   17   18 1
  31   17   20 1
  32   18   19 2
  33   18   42 1
  34   19   25 1
  35   20   21 2
  36   20   22 1
  37   22   23 1
  38   22   43 1
  39   22   44 1
  40   23   45 1
  41   23   46 1
  42   23   47 1
  43   24   48 1
  44   24   49 1
  45   24   50 1
  46   25   26 ar
  47   25   30 ar
  48   26   27 ar
  49   26   51 1
  50   27   28 ar
  51   27   52 1
  52   28   29 ar
  53   28   31 1
  54   29   30 ar
  55   29   53 1
  56   30   54 1

#	End of record

