#	Name: ASD01911287
#	Creating user name:	WinNT
#	Creation time:	15. 06. 2019 19:57

#	Modifying user name:	WinNT
#	Modification time:	15. 06. 2019 19:57

#	Program:	/corina/corina34_cracker 3.40 0067  02.08.2006

@<TRIPOS>MOLECULE
ASD01911287
  28   30    0    0    0
SMALL
NO_CHARGES


@<TRIPOS>ATOM
   1 C1            -0.0167     1.3797     0.0096 C.ar    
   2 C2             0.0021    -0.0041     0.0020 C.ar    
   3 C3             1.2058    -0.6866    -0.0132 C.ar    
   4 C4             2.3967     0.0087    -0.0209 C.ar    
   5 C5             2.3858     1.4064    -0.0133 C.ar    
   6 C6             1.1661     2.0888     0.0021 C.ar    
   7 C7             3.6182     2.1357    -0.0207 C.1     
   8 C8             4.6286     2.7335    -0.0268 C.1     
   9 C9             5.8610     3.4627    -0.0342 C.ar    
  10 C10            5.8424     4.8578    -0.0265 C.ar    
  11 C11            7.0346     5.5695    -0.0341 C.ar    
  12 C12            8.2489     4.8633    -0.0491 C.ar    
  13 C13            8.2554     3.4619    -0.0558 C.ar    
  14 C14            7.0804     2.7717    -0.0434 C.ar    
  15 O15            7.2490     6.9066    -0.0294 O.3     
  16 C16            8.6487     7.1897    -0.0411 C.3     
  17 C17            9.3430     5.8445    -0.0544 C.2     
  18 O18           10.5364     5.6253    -0.0667 O.2     
  19 H19           -0.9600     1.9055     0.0170 H       
  20 H20           -0.9274    -0.5540     0.0083 H       
  21 H21            1.2126    -1.7666    -0.0187 H       
  22 H22            3.3354    -0.5253    -0.0324 H       
  23 H23            1.1499     3.1687     0.0077 H       
  24 H24            4.8998     5.3846    -0.0150 H       
  25 H25            9.1939     2.9276    -0.0677 H       
  26 H26            7.0888     1.6917    -0.0483 H       
  27 H27            8.9101     7.7564    -0.9348 H       
  28 H28            8.9269     7.7474     0.8531 H       
@<TRIPOS>BOND
   1    1    2 ar
   2    1    6 ar
   3    1   19 1
   4    2    3 ar
   5    2   20 1
   6    3    4 ar
   7    3   21 1
   8    4    5 ar
   9    4   22 1
  10    5    6 ar
  11    5    7 1
  12    6   23 1
  13    7    8 3
  14    8    9 1
  15    9   10 ar
  16    9   14 ar
  17   10   11 ar
  18   10   24 1
  19   11   12 ar
  20   11   15 1
  21   12   13 ar
  22   12   17 1
  23   13   14 ar
  24   13   25 1
  25   14   26 1
  26   15   16 1
  27   16   17 1
  28   16   27 1
  29   16   28 1
  30   17   18 2

#	End of record

