#	Name: ASD00960299
#	Creating user name:	WinNT
#	Creation time:	15. 06. 2019 18:53

#	Modifying user name:	WinNT
#	Modification time:	15. 06. 2019 18:53

#	Program:	/corina/corina34_cracker 3.40 0067  02.08.2006

@<TRIPOS>MOLECULE
ASD00960299
  38   40    0    0    0
SMALL
NO_CHARGES


@<TRIPOS>ATOM
   1 C1            -0.0075     1.4686     0.0195 C.2     
   2 N2            -0.7298     3.5721     0.0259 N.pl3   
   3 C3             0.6383     3.5947    -0.0033 C.2     
   4 C4             1.1067     2.3384    -0.0176 C.2     
   5 N5            -1.4816     4.7575     0.0225 N.2     
   6 C6            -0.8697     5.8767    -0.2303 C.2     
   7 N7             0.4705     5.9225    -0.5361 N.pl3   
   8 C8             1.3941     4.9054    -0.0033 C.3     
   9 N9             1.7931     5.2562     1.3663 N.3     
  10 C10           -1.1499     2.2808     0.0461 C.2     
  11 C11            0.0255    -0.0037     0.0231 C.2     
  12 N12            0.1504    -0.6721     1.1867 N.am    
  13 S13           -0.0948    -0.8661    -1.4509 S.2     
  14 C14           -2.5404     1.8213     0.0875 C.2     
  15 O15           -2.7914     0.6344     0.0020 O.2     
  16 O16           -3.5424     2.7147     0.2204 O.3     
  17 C17           -4.8951     2.1881     0.2540 C.3     
  18 C18           -5.8730     3.3245     0.4060 C.ar    
  19 C19           -6.3901     3.9461    -0.7152 C.ar    
  20 C20           -7.2871     4.9886    -0.5758 C.ar    
  21 C21           -7.6674     5.4093     0.6849 C.ar    
  22 C22           -7.1509     4.7871     1.8061 C.ar    
  23 C23           -6.2573     3.7418     1.6666 C.ar    
  24 H24            2.1454     2.0445    -0.0510 H       
  25 H25           -1.4312     6.7988    -0.1995 H       
  26 H26            0.8102     6.6296    -1.1067 H       
  27 H27            2.2741     4.8291    -0.6418 H       
  28 H28            2.2575     6.1516     1.3895 H       
  29 H29            0.9989     5.2445     1.9885 H       
  30 H30            0.2186    -0.1834     2.0218 H       
  31 H31            0.1721    -1.6418     1.1890 H       
  32 H32           -5.1001     1.6539    -0.6738 H       
  33 H33           -4.9981     1.5048     1.0970 H       
  34 H34           -6.0931     3.6174    -1.7002 H       
  35 H35           -7.6906     5.4746    -1.4518 H       
  36 H36           -8.3676     6.2242     0.7939 H       
  37 H37           -7.4478     5.1160     2.7911 H       
  38 H38           -5.8567     3.2532     2.5426 H       
@<TRIPOS>BOND
   1    1   11 1
   2    1    4 1
   3    1   10 2
   4    2    3 1
   5    2    5 1
   6    2   10 1
   7    3    4 2
   8    3    8 1
   9    4   24 1
  10    5    6 2
  11    6    7 1
  12    6   25 1
  13    7    8 1
  14    7   26 1
  15    8    9 1
  16    8   27 1
  17    9   28 1
  18    9   29 1
  19   10   14 1
  20   11   12 am
  21   11   13 2
  22   12   30 1
  23   12   31 1
  24   14   15 2
  25   14   16 1
  26   16   17 1
  27   17   18 1
  28   17   32 1
  29   17   33 1
  30   18   19 ar
  31   18   23 ar
  32   19   20 ar
  33   19   34 1
  34   20   21 ar
  35   20   35 1
  36   21   22 ar
  37   21   36 1
  38   22   23 ar
  39   22   37 1
  40   23   38 1

#	End of record

