#	Name: ASD01028315
#	Creating user name:	WinNT
#	Creation time:	15. 06. 2019 18:56

#	Modifying user name:	WinNT
#	Modification time:	15. 06. 2019 18:56

#	Program:	/corina/corina34_cracker 3.40 0067  02.08.2006

@<TRIPOS>MOLECULE
ASD01028315
  36   39    0    0    0
SMALL
NO_CHARGES


@<TRIPOS>ATOM
   1 C1            -0.0166     1.3755     0.0096 C.ar    
   2 C2             0.0021    -0.0041     0.0020 C.ar    
   3 C3             1.1910     2.0691     0.0018 C.ar    
   4 C4             2.3742     1.3348    -0.0134 C.ar    
   5 C5             2.3084    -0.0433    -0.0202 C.ar    
   6 N6             1.1443    -0.6647    -0.0120 N.ar    
   7 O7             1.2141     3.4263     0.0084 O.3     
   8 C8             2.4982     4.0533    -0.0004 C.3     
   9 C9             2.3263     5.5504     0.0087 C.2     
  10 N10            2.2456     6.3369     1.1041 N.pl3   
  11 C11            2.0944     7.6216     0.6383 C.2     
  12 N12            2.0911     7.5517    -0.6829 N.2     
  13 N13            2.2339     6.3243    -1.0439 N.2     
  14 N14            2.2851     6.0906     2.4780 N.2     
  15 C15            2.1787     7.0808     3.3362 C.2     
  16 C16            2.0221     8.4100     2.8893 C.2     
  17 C17            1.9809     8.6812     1.5581 C.2     
  18 C18            2.2232     6.7973     4.7918 C.ar    
  19 C19            2.3770     5.4885     5.2449 C.ar    
  20 C20            2.4182     5.2306     6.6001 C.ar    
  21 C21            2.3072     6.2683     7.5080 C.ar    
  22 C22            2.1543     7.5694     7.0637 C.ar    
  23 C23            2.1171     7.8394     5.7108 C.ar    
  24 H24           -0.9550     1.9102     0.0170 H       
  25 H25           -0.9297    -0.5501     0.0080 H       
  26 H26            3.3302     1.8372    -0.0202 H       
  27 H27            3.2210    -0.6207    -0.0324 H       
  28 H28            3.0585     3.7465     0.8828 H       
  29 H29            3.0418     3.7554    -0.8971 H       
  30 H30            1.9352     9.2132     3.6061 H       
  31 H31            1.8612     9.6967     1.2104 H       
  32 H32            2.4634     4.6775     4.5370 H       
  33 H33            2.5370     4.2166     6.9525 H       
  34 H34            2.3396     6.0619     8.5676 H       
  35 H35            2.0678     8.3757     7.7769 H       
  36 H36            1.9978     8.8556     5.3650 H       
@<TRIPOS>BOND
   1    1    2 ar
   2    1    3 ar
   3    1   24 1
   4    2    6 ar
   5    2   25 1
   6    3    4 ar
   7    3    7 1
   8    4    5 ar
   9    4   26 1
  10    5    6 ar
  11    5   27 1
  12    7    8 1
  13    8    9 1
  14    8   28 1
  15    8   29 1
  16    9   10 1
  17    9   13 2
  18   10   11 1
  19   10   14 1
  20   11   12 2
  21   11   17 1
  22   12   13 1
  23   14   15 2
  24   15   16 1
  25   15   18 1
  26   16   17 2
  27   16   30 1
  28   17   31 1
  29   18   19 ar
  30   18   23 ar
  31   19   20 ar
  32   19   32 1
  33   20   21 ar
  34   20   33 1
  35   21   22 ar
  36   21   34 1
  37   22   23 ar
  38   22   35 1
  39   23   36 1

#	End of record

