#	Name: ASD05430153
#	Creating user name:	WinNT
#	Creation time:	15. 06. 2019 20:59

#	Modifying user name:	WinNT
#	Modification time:	15. 06. 2019 20:59

#	Program:	/corina/corina34_cracker 3.40 0067  02.08.2006

@<TRIPOS>MOLECULE
ASD05430153
  70   76    0    0    0
SMALL
NO_CHARGES


@<TRIPOS>ATOM
   1 C1            -0.0168     1.3884     0.0097 C.ar    
   2 C2             0.0021    -0.0041     0.0020 C.ar    
   3 C3             1.2145    -0.6775    -0.0132 C.ar    
   4 C4             2.3994     0.0335    -0.0207 C.ar    
   5 C5             2.3802     1.4162    -0.0126 C.ar    
   6 C6             1.1759     2.0942     0.0021 C.ar    
   7 C7             4.2174     0.9699     2.2350 C.3     
   8 C8             4.6393     1.9568     1.1442 C.3     
   9 C9             3.6759     2.1858    -0.0198 C.3     
  10 C10            4.2132     1.6465     3.6011 C.3     
  11 C11            3.9388     3.1488     3.5656 C.3     
  12 N12            4.9789     3.7988     2.7650 N.pl3   
  13 C13            5.4445     3.1374     1.6296 C.2     
  14 N14           -1.2028    -0.7242     0.0101 N.pl3   
  15 C15           -1.5470    -1.7458    -0.8364 C.2     
  16 C16           -2.7816    -2.1488    -0.4797 C.2     
  17 N17           -3.1844    -1.3972     0.5555 N.2     
  18 C18           -2.2450    -0.5442     0.8618 C.2     
  19 C19           -3.5734    -3.2532    -1.1310 C.3     
  20 C20           -1.1448     3.4816     0.0264 C.3     
  21 O21           -1.2023     2.0537     0.0189 O.3     
  22 C22            4.9670     1.3939    -0.2381 C.3     
  23 C23            5.5066     5.1179     3.1084 C.3     
  24 C24            7.0226     5.1183     2.8789 C.3     
  25 N25            7.3134     4.5401     1.5646 N.pl3   
  26 N26            6.5287     3.5027     1.0499 N.2     
  27 C27            4.8630     6.1628     2.2338 C.ar    
  28 C28            5.2103     5.4220     4.5783 C.3     
  29 O29            5.7272     6.7120     4.9114 O.3     
  30 C30            5.2089     7.4934     2.3788 C.ar    
  31 C31            3.9313     5.7893     1.2831 C.ar    
  32 C32            3.3411     6.7465     0.4798 C.ar    
  33 C33            3.6829     8.0801     0.6278 C.ar    
  34 C34            4.6196     8.4524     1.5770 C.ar    
  35 F35            3.1065     9.0167    -0.1570 F       
  36 C36            3.3672     0.9015     4.6468 C.3     
  37 O37            4.4709     1.1420     5.5435 O.3     
  38 C38            5.4252     1.2727     4.4701 C.3     
  39 H39            1.2325    -1.7573    -0.0188 H       
  40 H40            3.3428    -0.4921    -0.0325 H       
  41 H41            1.1642     3.1741     0.0080 H       
  42 H42            3.2166     0.5981     2.0154 H       
  43 H43            4.9153     0.1327     2.2512 H       
  44 H44            3.6238     3.1902    -0.4400 H       
  45 H45            2.9632     3.3315     3.1150 H       
  46 H46            3.9557     3.5475     4.5799 H       
  47 H47           -0.9442    -2.1496    -1.6363 H       
  48 H48           -2.2917     0.1871     1.6552 H       
  49 H49           -3.3539    -4.1988    -0.6352 H       
  50 H50           -4.6381    -3.0364    -1.0450 H       
  51 H51           -3.3008    -3.3233    -2.1841 H       
  52 H52           -0.6126     3.8191     0.9157 H       
  53 H53           -0.6210     3.8288    -0.8642 H       
  54 H54           -2.1570     3.8859     0.0334 H       
  55 H55            5.7646     1.8773    -0.8022 H       
  56 H56            4.8792     0.3163    -0.3765 H       
  57 H57            7.3960     6.1417     2.9170 H       
  58 H58            7.5080     4.5243     3.6533 H       
  59 H59            8.0587     4.8806     1.0454 H       
  60 H60            4.1327     5.4090     4.7420 H       
  61 H61            5.6826     4.6678     5.2078 H       
  62 H62            5.5750     6.9714     5.8304 H       
  63 H63            5.9396     7.7835     3.1192 H       
  64 H64            3.6649     4.7490     1.1679 H       
  65 H65            2.6139     6.4544    -0.2633 H       
  66 H66            4.8867     9.4923     1.6934 H       
  67 H67            2.4510     1.4223     4.9253 H       
  68 H68            3.2078    -0.1518     4.4160 H       
  69 H69            5.8997     0.3338     4.1849 H       
  70 H70            6.1364     2.0870     4.6090 H       
@<TRIPOS>BOND
   1    1    2 ar
   2    1    6 ar
   3    1   21 1
   4    2    3 ar
   5    2   14 1
   6    3    4 ar
   7    3   39 1
   8    4    5 ar
   9    4   40 1
  10    5    6 ar
  11    5    9 1
  12    6   41 1
  13    7    8 1
  14    7   10 1
  15    7   42 1
  16    7   43 1
  17    8    9 1
  18    8   22 1
  19    8   13 1
  20    9   22 1
  21    9   44 1
  22   10   11 1
  23   10   36 1
  24   10   38 1
  25   11   12 1
  26   11   45 1
  27   11   46 1
  28   12   13 1
  29   12   23 1
  30   13   26 2
  31   14   15 1
  32   14   18 1
  33   15   16 2
  34   15   47 1
  35   16   17 1
  36   16   19 1
  37   17   18 2
  38   18   48 1
  39   19   49 1
  40   19   50 1
  41   19   51 1
  42   20   21 1
  43   20   52 1
  44   20   53 1
  45   20   54 1
  46   22   55 1
  47   22   56 1
  48   23   24 1
  49   23   27 1
  50   23   28 1
  51   24   25 1
  52   24   57 1
  53   24   58 1
  54   25   26 1
  55   25   59 1
  56   27   30 ar
  57   27   31 ar
  58   28   29 1
  59   28   60 1
  60   28   61 1
  61   29   62 1
  62   30   34 ar
  63   30   63 1
  64   31   32 ar
  65   31   64 1
  66   32   33 ar
  67   32   65 1
  68   33   34 ar
  69   33   35 1
  70   34   66 1
  71   36   37 1
  72   36   67 1
  73   36   68 1
  74   37   38 1
  75   38   69 1
  76   38   70 1

#	End of record

