#	Name: ASD03090634
#	Creating user name:	WinNT
#	Creation time:	15. 06. 2019 20:29

#	Modifying user name:	WinNT
#	Modification time:	15. 06. 2019 20:29

#	Program:	/corina/corina34_cracker 3.40 0067  02.08.2006

@<TRIPOS>MOLECULE
ASD03090634
  40   41    0    0    0
SMALL
NO_CHARGES


@<TRIPOS>ATOM
   1 N1            -0.0162     1.3436     0.0094 N.am    
   2 C2             0.0192     0.1476     0.6299 C.2     
   3 O3             1.0727    -0.2854     1.0557 O.2     
   4 N4            -1.1129    -0.5683     0.7785 N.am    
   5 S5            -2.4215    -2.8290     1.6856 S.3     
   6 C6            -1.0764    -1.8023     1.4187 C.2     
   7 N7            -0.0166    -2.3676     1.9131 N.2     
   8 N8            -0.1566    -3.4949     2.4640 N.2     
   9 C9            -1.3551    -3.9852     2.4842 C.2     
  10 C10           -1.7650    -5.3064     3.0820 C.3     
  11 F11           -0.6667    -5.8887     3.7237 F       
  12 F12           -2.7916    -5.1000     4.0097 F       
  13 F13           -2.2172    -6.1570     2.0676 F       
  14 C14            1.1454     2.1273    -0.0707 C.ar    
  15 C15            1.0455     3.5109    -0.1992 C.ar    
  16 C16            2.1934     4.2814    -0.2775 C.ar    
  17 C17            3.4398     3.6746    -0.2279 C.ar    
  18 C18            3.5374     2.2972    -0.1004 C.ar    
  19 C19            2.3934     1.5259    -0.0163 C.ar    
  20 C20            4.8929     1.6407    -0.0473 C.3     
  21 O21           -0.1773     4.1037    -0.2481 O.3     
  22 C22           -0.2037     5.5263    -0.3806 C.3     
  23 O23            4.5670     4.4311    -0.3048 O.3     
  24 C24            4.3928     5.8434    -0.4356 C.3     
  25 C25            5.7624     6.5218    -0.5066 C.3     
  26 H26           -0.8435     1.6608    -0.3853 H       
  27 H27           -1.9533    -0.2228     0.4388 H       
  28 H28            2.1183     5.3541    -0.3775 H       
  29 H29            2.4717     0.4537     0.0878 H       
  30 H30            5.2256     1.5776     0.9887 H       
  31 H31            4.8278     0.6380    -0.4698 H       
  32 H32            5.6056     2.2317    -0.6225 H       
  33 H33            0.3080     5.9799     0.4682 H       
  34 H34            0.2987     5.8146    -1.3040 H       
  35 H35           -1.2379     5.8696    -0.4072 H       
  36 H36            3.8335     6.0578    -1.3463 H       
  37 H37            3.8435     6.2231     0.4259 H       
  38 H38            6.3216     6.3075     0.4041 H       
  39 H39            6.3117     6.1422    -1.3681 H       
  40 H40            5.6295     7.5991    -0.6063 H       
@<TRIPOS>BOND
   1    1    2 am
   2    1   14 1
   3    1   26 1
   4    2    3 2
   5    2    4 am
   6    4    6 1
   7    4   27 1
   8    5    6 1
   9    5    9 1
  10    6    7 2
  11    7    8 1
  12    8    9 2
  13    9   10 1
  14   10   11 1
  15   10   12 1
  16   10   13 1
  17   14   15 ar
  18   14   19 ar
  19   15   16 ar
  20   15   21 1
  21   16   17 ar
  22   16   28 1
  23   17   18 ar
  24   17   23 1
  25   18   19 ar
  26   18   20 1
  27   19   29 1
  28   20   30 1
  29   20   31 1
  30   20   32 1
  31   21   22 1
  32   22   33 1
  33   22   34 1
  34   22   35 1
  35   23   24 1
  36   24   25 1
  37   24   36 1
  38   24   37 1
  39   25   38 1
  40   25   39 1
  41   25   40 1

#	End of record

