#	Name: ASD02500255
#	Creating user name:	WinNT
#	Creation time:	15. 06. 2019 20:22

#	Modifying user name:	WinNT
#	Modification time:	15. 06. 2019 20:22

#	Program:	/corina/corina34_cracker 3.40 0067  02.08.2006

@<TRIPOS>MOLECULE
ASD02500255
  64   68    0    0    0
SMALL
NO_CHARGES


@<TRIPOS>ATOM
   1 N1            -1.8406     4.5905     1.9364 N.ar    
   2 C2            -2.9511     5.2075     2.2594 C.ar    
   3 C3            -3.7326     4.7949     3.3367 C.ar    
   4 C4            -3.3468     3.7207     4.0867 C.ar    
   5 C5            -2.1538     3.0602     3.7366 C.ar    
   6 C6            -1.6935     1.9493     4.4610 C.ar    
   7 C7            -0.5343     1.3380     4.0910 C.ar    
   8 C8             0.2019     1.8006     3.0025 C.ar    
   9 C9            -0.2150     2.8748     2.2781 C.ar    
  10 C10           -1.4066     3.5326     2.6291 C.ar    
  11 S11            0.7358     3.4394     0.9063 S.o2    
  12 O12            0.8730     4.8449     1.0645 O.2     
  13 O13            1.8449     2.5578     0.7968 O.2     
  14 N14           -0.1808     3.2091    -0.4535 N.am    
  15 C15           -0.5319     1.9218    -0.8455 C.ar    
  16 C16           -1.8453     1.6407    -1.2022 C.ar    
  17 C17           -2.1945     0.3602    -1.5927 C.ar    
  18 C18           -1.2169    -0.6471    -1.6255 C.ar    
  19 C19            0.1005    -0.3482    -1.2635 C.ar    
  20 C20            0.4356     0.9199    -0.8848 C.ar    
  21 O21           -3.4751     0.0792    -1.9416 O.3     
  22 C22           -4.4143     1.1546    -1.8833 C.3     
  23 C23           -1.5775    -2.0134    -2.0389 C.2     
  24 O24           -2.4809    -2.6009    -1.4750 O.2     
  25 N25           -0.9066    -2.6130    -3.0423 N.am    
  26 C26           -1.3205    -3.9346    -3.5340 C.3     
  27 C27           -1.5639    -3.8412    -5.0454 C.3     
  28 N28           -0.4056    -3.1848    -5.6678 N.am    
  29 C29            0.0083    -1.8631    -5.1762 C.3     
  30 C30            0.2482    -1.9541    -3.6685 C.3     
  31 C31            0.2653    -3.7844    -6.6712 C.2     
  32 C32            1.3532    -3.0655    -7.3655 C.ar    
  33 C33            2.4627    -3.7664    -7.8434 C.ar    
  34 C34            3.4759    -3.0896    -8.4917 C.ar    
  35 C35            3.3922    -1.7146    -8.6684 C.ar    
  36 C36            2.2930    -1.0162    -8.1951 C.ar    
  37 C37            1.2729    -1.6841    -7.5512 C.ar    
  38 O38           -0.0248    -4.9168    -7.0050 O.2     
  39 F39            4.3861    -1.0558    -9.3036 F       
  40 F40            4.5503    -3.7652    -8.9545 F       
  41 H41           -3.2686     6.0586     1.6752 H       
  42 H42           -4.6423     5.3242     3.5785 H       
  43 H43           -3.9401     3.3875     4.9253 H       
  44 H44           -2.2552     1.5819     5.3072 H       
  45 H45           -0.1809     0.4834     4.6488 H       
  46 H46            1.1185     1.2990     2.7292 H       
  47 H47           -0.4728     3.9720    -0.9765 H       
  48 H48           -2.5921     2.4203    -1.1743 H       
  49 H49            0.8547    -1.1208    -1.2873 H       
  50 H50            1.4552     1.1466    -0.6102 H       
  51 H51           -5.3976     0.7951    -2.1865 H       
  52 H52           -4.4657     1.5371    -0.8639 H       
  53 H53           -4.0959     1.9519    -2.5549 H       
  54 H54           -0.5337    -4.6621    -3.3344 H       
  55 H55           -2.2396    -4.2397    -3.0336 H       
  56 H56           -1.6831    -4.8424    -5.4593 H       
  57 H57           -2.4627    -3.2546    -5.2356 H       
  58 H58            0.9274    -1.5580    -5.6765 H       
  59 H59           -0.7786    -1.1357    -5.3757 H       
  60 H60            0.3649    -0.9515    -3.2570 H       
  61 H61            1.1493    -2.5373    -3.4788 H       
  62 H62            2.5279    -4.8356    -7.7057 H       
  63 H63            2.2331     0.0530    -8.3348 H       
  64 H64            0.4149    -1.1387    -7.1869 H       
@<TRIPOS>BOND
   1    1    2 ar
   2    1   10 ar
   3    2    3 ar
   4    2   41 1
   5    3    4 ar
   6    3   42 1
   7    4    5 ar
   8    4   43 1
   9    5    6 ar
  10    5   10 ar
  11    6    7 ar
  12    6   44 1
  13    7    8 ar
  14    7   45 1
  15    8    9 ar
  16    8   46 1
  17    9   10 ar
  18    9   11 1
  19   11   12 2
  20   11   13 2
  21   11   14 am
  22   14   15 1
  23   14   47 1
  24   15   16 ar
  25   15   20 ar
  26   16   17 ar
  27   16   48 1
  28   17   18 ar
  29   17   21 1
  30   18   19 ar
  31   18   23 1
  32   19   20 ar
  33   19   49 1
  34   20   50 1
  35   21   22 1
  36   22   51 1
  37   22   52 1
  38   22   53 1
  39   23   24 2
  40   23   25 am
  41   25   26 1
  42   25   30 1
  43   26   27 1
  44   26   54 1
  45   26   55 1
  46   27   28 1
  47   27   56 1
  48   27   57 1
  49   28   29 1
  50   28   31 am
  51   29   30 1
  52   29   58 1
  53   29   59 1
  54   30   60 1
  55   30   61 1
  56   31   32 1
  57   31   38 2
  58   32   33 ar
  59   32   37 ar
  60   33   34 ar
  61   33   62 1
  62   34   35 ar
  63   34   40 1
  64   35   36 ar
  65   35   39 1
  66   36   37 ar
  67   36   63 1
  68   37   64 1

#	End of record

