#	Name: ASD03090039
#	Creating user name:	WinNT
#	Creation time:	15. 06. 2019 20:28

#	Modifying user name:	WinNT
#	Modification time:	15. 06. 2019 20:28

#	Program:	/corina/corina34_cracker 3.40 0067  02.08.2006

@<TRIPOS>MOLECULE
ASD03090039
  45   47    0    0    0
SMALL
NO_CHARGES


@<TRIPOS>ATOM
   1 N1            -0.0629     1.3582     0.1320 N.am    
   2 C2            -0.2586     0.2184     0.8240 C.2     
   3 O3             0.6225    -0.2171     1.5399 O.2     
   4 N4            -1.4309    -0.4387     0.7226 N.am    
   5 O5            -2.5831    -3.3220     2.1624 O.3     
   6 N6            -2.7097    -2.3603     1.4406 N.2     
   7 C7            -1.6335    -1.6183     1.4387 C.2     
   8 C8            -0.7119    -2.2543     2.3124 C.2     
   9 C9            -1.3779    -3.3471     2.7497 C.2     
  10 C10           -0.8658    -4.3893     3.7103 C.3     
  11 C11            1.1300     2.0804     0.2921 C.ar    
  12 C12            1.1396     3.4629     0.1067 C.ar    
  13 C13            2.3201     4.1727     0.2663 C.ar    
  14 C14            3.4871     3.5068     0.6097 C.ar    
  15 C15            3.4749     2.1321     0.7930 C.ar    
  16 C16            2.2985     1.4216     0.6403 C.ar    
  17 N17           -0.0393     4.1320    -0.2401 N.pl3   
  18 C18            0.5676     6.2664     0.7237 C.ar    
  19 C19           -0.0677     5.5285    -0.2676 C.ar    
  20 C20           -0.7329     6.2020    -1.2896 C.ar    
  21 C21           -0.7326     7.5872    -1.2737 C.ar    
  22 C22           -0.0778     8.2508    -0.2529 C.ar    
  23 N23            0.5431     7.5838     0.7005 N.ar    
  24 O24            4.6448     4.2024     0.7663 O.3     
  25 C25            5.8090     3.4532     1.1203 C.3     
  26 C26            7.0042     4.3994     1.2511 C.3     
  27 H27           -0.7446     1.6773    -0.4798 H       
  28 H28           -2.1338    -0.0913     0.1514 H       
  29 H29            0.2887    -1.9385     2.5683 H       
  30 H30           -1.6338    -5.1464     3.8684 H       
  31 H31            0.0267    -4.8581     3.2959 H       
  32 H32           -0.6198    -3.9171     4.6614 H       
  33 H33            2.3308     5.2431     0.1231 H       
  34 H34            4.3852     1.6160     1.0600 H       
  35 H35            2.2912     0.3518     0.7881 H       
  36 H36           -0.8368     3.6262    -0.4614 H       
  37 H37            1.0827     5.7552     1.5235 H       
  38 H38           -1.2361     5.6578    -2.0750 H       
  39 H39           -1.2379     8.1425    -2.0501 H       
  40 H40           -0.0743     9.3307    -0.2362 H       
  41 H41            5.6404     2.9473     2.0710 H       
  42 H42            6.0142     2.7134     0.3465 H       
  43 H43            7.8922     3.8279     1.5211 H       
  44 H44            7.1729     4.9052     0.3004 H       
  45 H45            6.7990     5.1392     2.0249 H       
@<TRIPOS>BOND
   1    1    2 am
   2    1   11 1
   3    1   27 1
   4    2    3 2
   5    2    4 am
   6    4    7 1
   7    4   28 1
   8    5    6 1
   9    5    9 1
  10    6    7 2
  11    7    8 1
  12    8    9 2
  13    8   29 1
  14    9   10 1
  15   10   30 1
  16   10   31 1
  17   10   32 1
  18   11   12 ar
  19   11   16 ar
  20   12   13 ar
  21   12   17 1
  22   13   14 ar
  23   13   33 1
  24   14   15 ar
  25   14   24 1
  26   15   16 ar
  27   15   34 1
  28   16   35 1
  29   17   19 1
  30   17   36 1
  31   18   19 ar
  32   18   23 ar
  33   18   37 1
  34   19   20 ar
  35   20   21 ar
  36   20   38 1
  37   21   22 ar
  38   21   39 1
  39   22   23 ar
  40   22   40 1
  41   24   25 1
  42   25   26 1
  43   25   41 1
  44   25   42 1
  45   26   43 1
  46   26   44 1
  47   26   45 1

#	End of record

