#	Name: ASD01915360
#	Creating user name:	WinNT
#	Creation time:	15. 06. 2019 20:05

#	Modifying user name:	WinNT
#	Modification time:	15. 06. 2019 20:05

#	Program:	/corina/corina34_cracker 3.40 0067  02.08.2006

@<TRIPOS>MOLECULE
ASD01915360
  40   43    0    0    0
SMALL
NO_CHARGES


@<TRIPOS>ATOM
   1 C1            -0.0169     1.3921     0.0097 C.ar    
   2 C2             0.0021    -0.0041     0.0020 C.ar    
   3 N3            -1.1415    -0.6923     0.0096 N.ar    
   4 C4            -2.3142    -0.1034     0.0244 C.ar    
   5 C5            -2.4179     1.2852     0.0324 C.ar    
   6 C6            -1.2649     2.0492     0.0306 C.ar    
   7 C7             1.3286     1.9586    -0.0001 C.2     
   8 C8             2.3060     1.0550    -0.0143 C.2     
   9 S9             1.6664    -0.5765    -0.0169 S.3     
  10 C10            1.5850     3.4182     0.0045 C.ar    
  11 C11            1.2146     4.1902     1.1050 C.ar    
  12 S12            4.0233     1.4490    -0.0291 S.o2    
  13 O13            4.6885     0.3234    -0.5858 O.2     
  14 O14            4.1297     2.7595    -0.5679 O.2     
  15 C15            4.5481     1.5570     1.6495 C.ar    
  16 C16            5.0203     0.4341     2.2964 C.ar    
  17 C17            4.4910     2.7696     2.3139 C.ar    
  18 C18            4.9019     2.8636     3.6316 C.ar    
  19 C19            5.3719     1.7473     4.2923 C.ar    
  20 C20            5.4363     0.5217     3.6266 C.ar    
  21 C21            1.4556     5.5488     1.1041 C.ar    
  22 C22            2.0640     6.1457     0.0130 C.ar    
  23 C23            2.4337     5.3838    -1.0823 C.ar    
  24 C24            2.2026     4.0236    -1.0894 C.ar    
  25 N25           -3.6751     1.9011     0.0477 N.pl3   
  26 Cl26           2.3637     7.8556     0.0181 Cl      
  27 C27            5.9226    -0.6411     4.3062 C.1     
  28 N28            6.3084    -1.5636     4.8453 N.1     
  29 H29           -3.2116    -0.7043     0.0300 H       
  30 H30           -1.3192     3.1279     0.0370 H       
  31 H31            0.7397     3.7256     1.9565 H       
  32 H32            5.0679    -0.5108     1.7755 H       
  33 H33            4.1243     3.6466     1.8014 H       
  34 H34            4.8550     3.8131     4.1441 H       
  35 H35            5.6930     1.8222     5.3207 H       
  36 H36            1.1688     6.1477     1.9558 H       
  37 H37            2.9077     5.8545    -1.9310 H       
  38 H38            2.4917     3.4301    -1.9442 H       
  39 H39           -4.4802     1.3600     0.0528 H       
  40 H40           -3.7411     2.8688     0.0533 H       
@<TRIPOS>BOND
   1    1    2 ar
   2    1    7 1
   3    1    6 ar
   4    2    3 ar
   5    2    9 1
   6    3    4 ar
   7    4    5 ar
   8    4   29 1
   9    5    6 ar
  10    5   25 1
  11    6   30 1
  12    7    8 2
  13    7   10 1
  14    8    9 1
  15    8   12 1
  16   10   11 ar
  17   10   24 ar
  18   11   21 ar
  19   11   31 1
  20   12   13 2
  21   12   14 2
  22   12   15 1
  23   15   16 ar
  24   15   17 ar
  25   16   20 ar
  26   16   32 1
  27   17   18 ar
  28   17   33 1
  29   18   19 ar
  30   18   34 1
  31   19   20 ar
  32   19   35 1
  33   20   27 1
  34   21   22 ar
  35   21   36 1
  36   22   23 ar
  37   22   26 1
  38   23   24 ar
  39   23   37 1
  40   24   38 1
  41   25   39 1
  42   25   40 1
  43   27   28 3

#	End of record

