#	Name: ASD01230179
#	Creating user name:	WinNT
#	Creation time:	15. 06. 2019 19:11

#	Modifying user name:	WinNT
#	Modification time:	15. 06. 2019 19:11

#	Program:	/corina/corina34_cracker 3.40 0067  02.08.2006

@<TRIPOS>MOLECULE
ASD01230179
  45   48    0    0    0
SMALL
NO_CHARGES


@<TRIPOS>ATOM
   1 S1             0.0145     1.6408     0.0128 S.o2    
   2 N2             0.0231    -0.0066     0.0028 N.am    
   3 C3             1.0735    -0.7228     0.0747 C.2     
   4 N4             2.3437    -0.2233     0.2113 N.pl3   
   5 C5             2.5867     1.1042     0.7645 C.3     
   6 C6             1.7576     2.1348    -0.0045 C.3     
   7 C7             0.9717    -2.2387     0.0238 C.3     
   8 C8             2.0431    -2.7990     0.9625 C.3     
   9 C9             3.4405    -2.4067     0.5018 C.3     
  10 C10            3.4562    -1.0706    -0.2309 C.3     
  11 O11           -0.3236    -2.6539     0.4617 O.3     
  12 C12           -2.5414    -3.1706    -0.1379 C.ar    
  13 C13           -1.3123    -2.6758    -0.4704 C.ar    
  14 C14           -1.0584    -2.1913    -1.7569 C.ar    
  15 C15           -2.0276    -2.2000    -2.7114 C.ar    
  16 C16           -3.3039    -2.7021    -2.4046 C.ar    
  17 C17           -4.3275    -2.7247    -3.3680 C.ar    
  18 C18           -5.5521    -3.2167    -3.0400 C.ar    
  19 C19           -5.8110    -3.7027    -1.7545 C.ar    
  20 C20           -4.8401    -3.6958    -0.7942 C.ar    
  21 C21           -3.5639    -3.1942    -1.1004 C.ar    
  22 O22           -7.0450    -4.1876    -1.4569 O.3     
  23 C23           -8.0191    -4.1682    -2.5023 C.3     
  24 O24           -0.6122     1.9916    -1.2134 O.2     
  25 O25           -0.5835     1.9768     1.2573 O.2     
  26 H26            2.2996     1.1181     1.8159 H       
  27 H27            3.6452     1.3479     0.6732 H       
  28 H28            2.1098     2.1890    -1.0346 H       
  29 H29            1.8632     3.1116     0.4676 H       
  30 H30            1.1500    -2.5883    -0.9931 H       
  31 H31            1.8762    -2.4106     1.9672 H       
  32 H32            1.9662    -3.8861     0.9837 H       
  33 H33            4.0934    -2.3398     1.3721 H       
  34 H34            3.8224    -3.1796    -0.1651 H       
  35 H35            3.3683    -1.2480    -1.3028 H       
  36 H36            4.3981    -0.5610    -0.0281 H       
  37 H37           -2.7244    -3.5460     0.8581 H       
  38 H38           -0.0790    -1.8043    -1.9964 H       
  39 H39           -1.8173    -1.8221    -3.7010 H       
  40 H40           -4.1421    -2.3523    -4.3647 H       
  41 H41           -6.3360    -3.2320    -3.7828 H       
  42 H42           -5.0521    -4.0735     0.1952 H       
  43 H43           -8.1794    -3.1413    -2.8306 H       
  44 H44           -7.6638    -4.7666    -3.3412 H       
  45 H45           -8.9573    -4.5820    -2.1324 H       
@<TRIPOS>BOND
   1    1    2 am
   2    1    6 1
   3    1   24 2
   4    1   25 2
   5    2    3 2
   6    3    4 1
   7    3    7 1
   8    4    5 1
   9    4   10 1
  10    5    6 1
  11    5   26 1
  12    5   27 1
  13    6   28 1
  14    6   29 1
  15    7    8 1
  16    7   11 1
  17    7   30 1
  18    8    9 1
  19    8   31 1
  20    8   32 1
  21    9   10 1
  22    9   33 1
  23    9   34 1
  24   10   35 1
  25   10   36 1
  26   11   13 1
  27   12   13 ar
  28   12   21 ar
  29   12   37 1
  30   13   14 ar
  31   14   15 ar
  32   14   38 1
  33   15   16 ar
  34   15   39 1
  35   16   17 ar
  36   16   21 ar
  37   17   18 ar
  38   17   40 1
  39   18   19 ar
  40   18   41 1
  41   19   20 ar
  42   19   22 1
  43   20   21 ar
  44   20   42 1
  45   22   23 1
  46   23   43 1
  47   23   44 1
  48   23   45 1

#	End of record

