#	Name: ASD04882311
#	Creating user name:	WinNT
#	Creation time:	15. 06. 2019 20:54

#	Modifying user name:	WinNT
#	Modification time:	15. 06. 2019 20:54

#	Program:	/corina/corina34_cracker 3.40 0067  02.08.2006

@<TRIPOS>MOLECULE
ASD04882311
  73   78    0    0    0
SMALL
NO_CHARGES


@<TRIPOS>ATOM
   1 N1            -0.0169     1.3970     0.0097 N.am    
   2 C2             0.1097     0.0022    -0.0340 C.ar    
   3 C3            -1.0276    -0.8061     0.0459 C.ar    
   4 C4            -0.9035    -2.1901     0.0027 C.ar    
   5 C5             0.3398    -2.7696    -0.1194 C.ar    
   6 C6             1.4813    -1.9670    -0.2002 C.ar    
   7 C7             1.3588    -0.5752    -0.1618 C.ar    
   8 N8            -2.2868    -0.2245     0.1694 N.3     
   9 C9            -3.1529    -0.5994    -0.9570 C.3     
  10 C10           -2.9095    -0.5838     1.4511 C.3     
  11 C11           -4.2532     0.1371     1.5823 C.3     
  12 N12           -5.1193    -0.2379     0.4558 N.3     
  13 C13           -4.4966     0.1215    -0.8259 C.3     
  14 C14            2.8131    -2.5880    -0.3310 C.2     
  15 O15            3.8056    -1.8890    -0.4013 O.2     
  16 C16            0.9210     2.1770    -0.5632 C.2     
  17 C17            0.7440     3.6400    -0.5949 C.2     
  18 O18            1.9136     1.6738    -1.0541 O.2     
  19 N19            2.9297    -3.9301    -0.3727 N.am    
  20 C20           -6.3823     0.3456     0.5797 C.ar    
  21 C21           -6.5091     1.7280     0.6236 C.ar    
  22 C22           -7.5150    -0.4555     0.6536 C.ar    
  23 C23           -8.7621     0.1246     0.7761 C.ar    
  24 C24           -8.8844     1.5014     0.8248 C.ar    
  25 C25           -7.7596     2.3016     0.7462 C.ar    
  26 C26            4.2523    -4.5467    -0.5026 C.3     
  27 C27            4.1050    -6.0695    -0.5254 C.3     
  28 C28            5.4654    -6.7038    -0.6590 C.2     
  29 N29           -0.3086     4.3381    -0.0886 N.2     
  30 C30           -0.1071     5.6030    -0.3070 C.2     
  31 O31            1.0592     5.7603    -0.9489 O.3     
  32 C32            1.6053     4.5473    -1.1309 C.2     
  33 C33           -7.3829    -1.9557     0.5996 C.3     
  34 N34            6.2568    -7.1597     0.3605 N.pl3   
  35 C35            7.3843    -7.6505    -0.1978 C.2     
  36 N36            7.3049    -7.5107    -1.4929 N.2     
  37 C37            6.1336    -6.9364    -1.8049 C.2     
  38 C38           -1.0379     6.7173     0.0970 C.3     
  39 C39           -0.4922     7.7832     1.0493 C.3     
  40 C40           -0.7267     8.1217    -0.4243 C.3     
  41 H41           -0.7817     1.8010     0.4488 H       
  42 H42           -1.7841    -2.8123     0.0653 H       
  43 H43            0.4330    -3.8451    -0.1524 H       
  44 H44            2.2391     0.0475    -0.2240 H       
  45 H45           -2.6759    -0.3119    -1.8940 H       
  46 H46           -3.3159    -1.6771    -0.9474 H       
  47 H47           -3.0697    -1.6613     1.4881 H       
  48 H48           -2.2550    -0.2848     2.2699 H       
  49 H49           -4.7302    -0.1505     2.5192 H       
  50 H50           -4.0902     1.2148     1.5726 H       
  51 H51           -4.3364     1.1990    -0.8629 H       
  52 H52           -5.1511    -0.1775    -1.6446 H       
  53 H53            2.1380    -4.4877    -0.3166 H       
  54 H54           -5.6310     2.3536     0.5623 H       
  55 H55           -9.6431    -0.4975     0.8335 H       
  56 H56           -9.8610     1.9525     0.9199 H       
  57 H57           -7.8586     3.3764     0.7846 H       
  58 H58            4.7194    -4.2130    -1.4291 H       
  59 H59            4.8741    -4.2545     0.3436 H       
  60 H60            3.6379    -6.4032     0.4011 H       
  61 H61            3.4831    -6.3617    -1.3716 H       
  62 H62            2.5458     4.3321    -1.6163 H       
  63 H63           -7.2637    -2.3465     1.6101 H       
  64 H64           -8.2780    -2.3833     0.1479 H       
  65 H65           -6.5114    -2.2224     0.0017 H       
  66 H66            6.0471    -7.1348     1.3072 H       
  67 H67            8.2142    -8.0861     0.3386 H       
  68 H68            5.7897    -6.6962    -2.8001 H       
  69 H69           -2.0868     6.4394     0.2004 H       
  70 H70           -1.1822     8.2069     1.7789 H       
  71 H71            0.5400     7.6786     1.3836 H       
  72 H72            0.1512     8.2397    -1.0594 H       
  73 H73           -1.5710     8.7680    -0.6641 H       
@<TRIPOS>BOND
   1    1    2 1
   2    1   16 am
   3    1   41 1
   4    2    3 ar
   5    2    7 ar
   6    3    4 ar
   7    3    8 1
   8    4    5 ar
   9    4   42 1
  10    5    6 ar
  11    5   43 1
  12    6    7 ar
  13    6   14 1
  14    7   44 1
  15    8    9 1
  16    8   10 1
  17    9   13 1
  18    9   45 1
  19    9   46 1
  20   10   11 1
  21   10   47 1
  22   10   48 1
  23   11   12 1
  24   11   49 1
  25   11   50 1
  26   12   13 1
  27   12   20 1
  28   13   51 1
  29   13   52 1
  30   14   15 2
  31   14   19 am
  32   16   18 2
  33   16   17 1
  34   17   29 1
  35   17   32 2
  36   19   26 1
  37   19   53 1
  38   20   21 ar
  39   20   22 ar
  40   21   25 ar
  41   21   54 1
  42   22   23 ar
  43   22   33 1
  44   23   24 ar
  45   23   55 1
  46   24   25 ar
  47   24   56 1
  48   25   57 1
  49   26   27 1
  50   26   58 1
  51   26   59 1
  52   27   28 1
  53   27   60 1
  54   27   61 1
  55   28   34 1
  56   28   37 2
  57   29   30 2
  58   30   31 1
  59   30   38 1
  60   31   32 1
  61   32   62 1
  62   33   63 1
  63   33   64 1
  64   33   65 1
  65   34   35 1
  66   34   66 1
  67   35   36 2
  68   35   67 1
  69   36   37 1
  70   37   68 1
  71   38   39 1
  72   38   40 1
  73   38   69 1
  74   39   40 1
  75   39   70 1
  76   39   71 1
  77   40   72 1
  78   40   73 1

#	End of record

