#	Name: ASD01410500
#	Creating user name:	WinNT
#	Creation time:	15. 06. 2019 19:17

#	Modifying user name:	WinNT
#	Modification time:	15. 06. 2019 19:17

#	Program:	/corina/corina34_cracker 3.40 0067  02.08.2006

@<TRIPOS>MOLECULE
ASD01410500
  74   77    0    0    0
SMALL
NO_CHARGES


@<TRIPOS>ATOM
   1 C1             1.6059     4.0464     0.9669 C.ar    
   2 C2             2.0959     3.8193     2.2454 C.ar    
   3 C3             3.2197     3.0334     2.4085 C.ar    
   4 N4             3.8285     2.4995     1.3670 N.ar    
   5 C5             3.3917     2.6930     0.1333 C.ar    
   6 C6             2.2670     3.4724    -0.1051 C.ar    
   7 O7             4.0487     2.1248    -0.9089 O.3     
   8 C8             5.2074     1.4629    -0.6485 C.ar    
   9 C9             5.1823     0.2883     0.0939 C.ar    
  10 C10            6.3527    -0.3915     0.3640 C.ar    
  11 C11            7.5651     0.0948    -0.1048 C.ar    
  12 C12            7.5973     1.2802    -0.8550 C.ar    
  13 C13            6.4065     1.9576    -1.1282 C.ar    
  14 N14            8.7471    -0.5918     0.1691 N.am    
  15 C15            9.3177    -1.3573    -0.7822 C.2     
  16 C16            9.3689    -0.4814     1.4909 C.3     
  17 O17            8.8523    -1.3803    -1.9020 O.2     
  18 C18           10.5340    -2.1845    -0.4546 C.3     
  19 C19           11.0940    -2.7989    -1.7390 C.3     
  20 C20           12.3288    -3.6388    -1.4064 C.3     
  21 C21           11.9400    -4.7547    -0.4346 C.3     
  22 C22           11.3799    -4.1403     0.8498 C.3     
  23 C23           10.1451    -3.3005     0.5172 C.3     
  24 C24           13.1748    -5.5946    -0.1020 C.3     
  25 C25           10.2944     0.7077     1.5130 C.ar    
  26 C26           11.6480     0.5341     1.2998 C.ar    
  27 C27           12.4978     1.6248     1.3199 C.ar    
  28 C28           11.9953     2.8913     1.5533 C.ar    
  29 C29           10.6421     3.0703     1.7676 C.ar    
  30 C30            9.7867     1.9786     1.7418 C.ar    
  31 O31            8.4554     2.1520     1.9523 O.3     
  32 C32            8.0052     3.4864     2.1942 C.3     
  33 C33            6.5175     3.5926     1.8528 C.3     
  34 C34            8.2164     3.8365     3.6685 C.3     
  35 C35            1.7731     3.6900    -1.5122 C.3     
  36 F36            0.6355     4.5038    -1.4864 F       
  37 F37            2.7739     4.3113    -2.2668 F       
  38 F38            1.4514     2.4570    -2.0895 F       
  39 C39            8.8801     1.8049    -1.3568 C.2     
  40 O40            9.9134     1.2107    -1.1211 O.2     
  41 O41            8.9068     2.9436    -2.0769 O.3     
  42 H42            0.7262     4.6536     0.8124 H       
  43 H43            1.6038     4.2527     3.1035 H       
  44 H44            3.6052     2.8538     3.4013 H       
  45 H45            4.2418    -0.0944     0.4619 H       
  46 H46            6.3251    -1.3036     0.9416 H       
  47 H47            6.4233     2.8706    -1.7049 H       
  48 H48            8.5944    -0.3531     2.2472 H       
  49 H49            9.9365    -1.3876     1.7023 H       
  50 H50           11.2918    -1.5501     0.0051 H       
  51 H51           10.3362    -3.4333    -2.1988 H       
  52 H52           11.3710    -2.0039    -2.4313 H       
  53 H53           12.7278    -4.0765    -2.3214 H       
  54 H54           13.0866    -3.0044    -0.9467 H       
  55 H55           11.1821    -5.3891    -0.8944 H       
  56 H56           11.1029    -4.9353     1.5421 H       
  57 H57           12.1377    -3.5059     1.3096 H       
  58 H58            9.7461    -2.8627     1.4322 H       
  59 H59            9.3873    -3.9349     0.0574 H       
  60 H60           13.9326    -4.9602     0.3578 H       
  61 H61           12.8978    -6.3896     0.5903 H       
  62 H62           13.5738    -6.0323    -1.0170 H       
  63 H63           12.0430    -0.4544     1.1175 H       
  64 H64           13.5560     1.4869     1.1533 H       
  65 H65           12.6611     3.7416     1.5685 H       
  66 H66           10.2501     4.0599     1.9503 H       
  67 H67            8.5712     4.1793     1.5715 H       
  68 H68            5.9457     2.9413     2.5139 H       
  69 H69            6.1874     4.6231     1.9835 H       
  70 H70            6.3596     3.2889     0.8180 H       
  71 H71            7.5834     3.2005     4.2873 H       
  72 H72            9.2615     3.6770     3.9337 H       
  73 H73            7.9547     4.8815     3.8349 H       
  74 H74            9.7715     3.2484    -2.3844 H       
@<TRIPOS>BOND
   1    1    2 ar
   2    1    6 ar
   3    1   42 1
   4    2    3 ar
   5    2   43 1
   6    3    4 ar
   7    3   44 1
   8    4    5 ar
   9    5    6 ar
  10    5    7 1
  11    6   35 1
  12    7    8 1
  13    8    9 ar
  14    8   13 ar
  15    9   10 ar
  16    9   45 1
  17   10   11 ar
  18   10   46 1
  19   11   12 ar
  20   11   14 1
  21   12   13 ar
  22   12   39 1
  23   13   47 1
  24   14   15 am
  25   14   16 1
  26   15   17 2
  27   15   18 1
  28   16   25 1
  29   16   48 1
  30   16   49 1
  31   18   19 1
  32   18   23 1
  33   18   50 1
  34   19   20 1
  35   19   51 1
  36   19   52 1
  37   20   21 1
  38   20   53 1
  39   20   54 1
  40   21   22 1
  41   21   24 1
  42   21   55 1
  43   22   23 1
  44   22   56 1
  45   22   57 1
  46   23   58 1
  47   23   59 1
  48   24   60 1
  49   24   61 1
  50   24   62 1
  51   25   26 ar
  52   25   30 ar
  53   26   27 ar
  54   26   63 1
  55   27   28 ar
  56   27   64 1
  57   28   29 ar
  58   28   65 1
  59   29   30 ar
  60   29   66 1
  61   30   31 1
  62   31   32 1
  63   32   33 1
  64   32   34 1
  65   32   67 1
  66   33   68 1
  67   33   69 1
  68   33   70 1
  69   34   71 1
  70   34   72 1
  71   34   73 1
  72   35   36 1
  73   35   37 1
  74   35   38 1
  75   39   40 2
  76   39   41 1
  77   41   74 1

#	End of record

