#	Name: ASD01816580
#	Creating user name:	WinNT
#	Creation time:	15. 06. 2019 19:35

#	Modifying user name:	WinNT
#	Modification time:	15. 06. 2019 19:35

#	Program:	/corina/corina34_cracker 3.40 0067  02.08.2006

@<TRIPOS>MOLECULE
ASD01816580
  56   61    0    0    0
SMALL
NO_CHARGES


@<TRIPOS>ATOM
   1 C1            -0.0167     1.3812     0.0096 C.ar    
   2 C2             0.0021    -0.0041     0.0020 C.ar    
   3 C3             1.1984    -0.6908    -0.0131 C.ar    
   4 C4             2.4015     0.0061    -0.0204 C.ar    
   5 C5             2.3789     1.4106    -0.0127 C.ar    
   6 C6             1.1664     2.0916     0.0022 C.ar    
   7 N7             3.6054    -0.6770    -0.0347 N.pl3   
   8 C8             4.7971    -0.0584    -0.0423 C.2     
   9 C9             4.9001     1.3105    -0.0364 C.2     
  10 C10            3.6673     2.1304    -0.0207 C.2     
  11 C11            5.9972     2.2731    -0.0422 C.2     
  12 N12            5.4244     3.4961    -0.0313 N.am    
  13 N13            4.0322     3.3795    -0.0185 N.2     
  14 C14            6.1581     4.7641    -0.0316 C.3     
  15 O15            7.1917     2.0232    -0.0541 O.2     
  16 C16            3.5781    -2.1418    -0.0413 C.3     
  17 C17            3.5556    -2.6374    -1.4643 C.ar    
  18 C18            4.7435    -2.8866    -2.1269 C.ar    
  19 C19            4.7261    -3.3404    -3.4313 C.ar    
  20 C20            3.5145    -3.5468    -4.0770 C.ar    
  21 C21            2.3235    -3.2961    -3.4089 C.ar    
  22 C22            2.3472    -2.8473    -2.1028 C.ar    
  23 C23            5.7677     5.5768    -1.2463 C.2     
  24 N24            3.4936    -4.0069    -5.4010 N.pl3   
  25 C25            2.3887    -4.2482    -6.1424 C.2     
  26 C26            5.8023     5.5650     1.2253 C.3     
  27 C27            6.4593     6.9443     1.1520 C.3     
  28 C28            5.8914     7.7269    -0.0332 C.3     
  29 C29            6.2506     7.0074    -1.3375 C.3     
  30 C30            2.7953    -4.6776    -7.3595 C.2     
  31 C31            4.1944    -4.6999    -7.3632 C.2     
  32 N32            4.6137    -4.2925    -6.1923 N.2     
  33 O33            5.0881     5.0957    -2.1209 O.2     
  34 H34           -0.9602     1.9068     0.0170 H       
  35 H35           -0.9288    -0.5516     0.0083 H       
  36 H36            1.2005    -1.7708    -0.0189 H       
  37 H37            1.1508     3.1714     0.0084 H       
  38 H38            5.6984    -0.6535    -0.0530 H       
  39 H39            7.2300     4.5668    -0.0488 H       
  40 H40            4.4658    -2.5240     0.4626 H       
  41 H41            2.6862    -2.4908     0.4791 H       
  42 H42            5.6857    -2.7259    -1.6242 H       
  43 H43            5.6542    -3.5343    -3.9486 H       
  44 H44            1.3794    -3.4554    -3.9087 H       
  45 H45            1.4211    -2.6521    -1.5826 H       
  46 H46            1.3656    -4.1215    -5.8207 H       
  47 H47            4.7203     5.6807     1.2884 H       
  48 H48            6.1637     5.0366     2.1075 H       
  49 H49            6.2610     7.4896     2.0747 H       
  50 H50            7.5356     6.8267     1.0261 H       
  51 H51            4.8073     7.7914     0.0598 H       
  52 H52            6.3160     8.7308    -0.0429 H       
  53 H53            7.3316     7.0207    -1.4772 H       
  54 H54            5.7641     7.5053    -2.1762 H       
  55 H55            2.1533    -4.9543    -8.1827 H       
  56 H56            4.8205    -4.9976    -8.1913 H       
@<TRIPOS>BOND
   1    1    2 ar
   2    1    6 ar
   3    1   34 1
   4    2    3 ar
   5    2   35 1
   6    3    4 ar
   7    3   36 1
   8    4    5 ar
   9    4    7 1
  10    5    6 ar
  11    5   10 1
  12    6   37 1
  13    7    8 1
  14    7   16 1
  15    8    9 2
  16    8   38 1
  17    9   10 1
  18    9   11 1
  19   10   13 2
  20   11   12 am
  21   11   15 2
  22   12   13 1
  23   12   14 1
  24   14   26 1
  25   14   23 1
  26   14   39 1
  27   16   17 1
  28   16   40 1
  29   16   41 1
  30   17   18 ar
  31   17   22 ar
  32   18   19 ar
  33   18   42 1
  34   19   20 ar
  35   19   43 1
  36   20   21 ar
  37   20   24 1
  38   21   22 ar
  39   21   44 1
  40   22   45 1
  41   23   33 2
  42   23   29 1
  43   24   25 1
  44   24   32 1
  45   25   30 2
  46   25   46 1
  47   26   27 1
  48   26   47 1
  49   26   48 1
  50   27   28 1
  51   27   49 1
  52   27   50 1
  53   28   29 1
  54   28   51 1
  55   28   52 1
  56   29   53 1
  57   29   54 1
  58   30   31 1
  59   30   55 1
  60   31   32 2
  61   31   56 1

#	End of record

