#	Name: ASD05790013
#	Creating user name:	WinNT
#	Creation time:	15. 06. 2019 21:03

#	Modifying user name:	WinNT
#	Modification time:	15. 06. 2019 21:03

#	Program:	/corina/corina34_cracker 3.40 0067  02.08.2006

@<TRIPOS>MOLECULE
ASD05790013
  45   48    0    0    0
SMALL
NO_CHARGES


@<TRIPOS>ATOM
   1 C1            -0.1753     1.4727    -0.5693 C.2     
   2 C2            -0.1532    -0.0033    -0.5732 C.ar    
   3 C3             0.8996    -0.6879    -1.1880 C.ar    
   4 C4             0.9142    -2.0677    -1.1881 C.ar    
   5 C5            -0.1120    -2.7739    -0.5803 C.ar    
   6 C6            -1.1585    -2.0994     0.0305 C.ar    
   7 C7            -1.1809    -0.7215     0.0424 C.ar    
   8 O8             0.7231     2.0955    -1.1016 O.2     
   9 N9            -1.1942     2.1299     0.0193 N.am    
  10 C10           -1.1619     3.5222     0.1191 C.ar    
  11 C11           -2.3411     4.2525     0.0191 C.ar    
  12 C12           -2.3127     5.6263     0.1171 C.ar    
  13 C13           -1.0979     6.2856     0.3173 C.ar    
  14 C14            0.0846     5.5493     0.4173 C.ar    
  15 C15            0.0486     4.1753     0.3241 C.ar    
  16 O16           -2.1300     8.5736     0.3426 O.3     
  17 C17           -1.0637     7.7588     0.4224 C.2     
  18 N18            0.0117     8.4857     0.6094 N.2     
  19 C19           -0.3497     9.7850     0.6526 C.2     
  20 C20           -1.6950     9.8407     0.4851 C.2     
  21 C21           -2.5433    11.0861     0.4626 C.3     
  22 F22           -2.6400    11.5608    -0.8499 F       
  23 F23           -3.8219    10.7882     0.9461 F       
  24 F24           -1.9557    12.0653     1.2706 F       
  25 C25            0.5585    10.9421     0.8488 C.ar    
  26 C26            1.6697    10.8255     1.6814 C.ar    
  27 C27            2.5114    11.9047     1.8599 C.ar    
  28 C28            2.2531    13.1006     1.2145 C.ar    
  29 C29            1.1515    13.2219     0.3868 C.ar    
  30 C30            0.3064    12.1474     0.1966 C.ar    
  31 F31           -0.0928    -4.1248    -0.5832 F       
  32 Cl32           2.1849     0.1959    -1.9500 Cl      
  33 H33            1.7263    -2.5982    -1.6629 H       
  34 H34           -1.9556    -2.6553     0.5018 H       
  35 H35           -1.9941    -0.1979     0.5231 H       
  36 H36           -1.9499     1.6356     0.3736 H       
  37 H37           -3.2802     3.7421    -0.1361 H       
  38 H38           -3.2288     6.1929     0.0390 H       
  39 H39            1.0256     6.0562     0.5722 H       
  40 H40            0.9621     3.6050     0.4058 H       
  41 H41            1.8719     9.8925     2.1864 H       
  42 H42            3.3729    11.8154     2.5050 H       
  43 H43            2.9139    13.9428     1.3575 H       
  44 H44            0.9544    14.1580    -0.1144 H       
  45 H45           -0.5510    12.2418    -0.4533 H       
@<TRIPOS>BOND
   1    1    2 1
   2    1    8 2
   3    1    9 am
   4    2    3 ar
   5    2    7 ar
   6    3    4 ar
   7    3   32 1
   8    4    5 ar
   9    4   33 1
  10    5    6 ar
  11    5   31 1
  12    6    7 ar
  13    6   34 1
  14    7   35 1
  15    9   10 1
  16    9   36 1
  17   10   11 ar
  18   10   15 ar
  19   11   12 ar
  20   11   37 1
  21   12   13 ar
  22   12   38 1
  23   13   14 ar
  24   13   17 1
  25   14   15 ar
  26   14   39 1
  27   15   40 1
  28   16   17 1
  29   16   20 1
  30   17   18 2
  31   18   19 1
  32   19   20 2
  33   19   25 1
  34   20   21 1
  35   21   22 1
  36   21   23 1
  37   21   24 1
  38   25   26 ar
  39   25   30 ar
  40   26   27 ar
  41   26   41 1
  42   27   28 ar
  43   27   42 1
  44   28   29 ar
  45   28   43 1
  46   29   30 ar
  47   29   44 1
  48   30   45 1

#	End of record

