#	Name: ASD06600019
#	Creating user name:	WinNT
#	Creation time:	15. 06. 2019 21:06

#	Modifying user name:	WinNT
#	Modification time:	15. 06. 2019 21:06

#	Program:	/corina/corina34_cracker 3.40 0067  02.08.2006

@<TRIPOS>MOLECULE
ASD06600019
 268  270    0    0    0
SMALL
NO_CHARGES


@<TRIPOS>ATOM
   1 C1            -0.6250    -2.2350     0.6345 C.2     
   2 O2            -0.7407    -3.4422     0.6417 O.2     
   3 N3             1.7635    -2.6631     0.6675 N.am    
   4 C4             0.7460    -1.6093     0.6472 C.3     
   5 C5             0.9263    -0.7504    -0.6061 C.3     
   6 C6             2.3181    -0.1153    -0.5931 C.3     
   7 C7             0.7773    -1.6272    -1.8510 C.3     
   8 C8            -4.0359    -1.1029    -0.0338 C.2     
   9 O9            -3.6590    -0.0186    -0.4252 O.2     
  10 N10           -1.7223    -1.4529     0.6095 N.am    
  11 C11           -3.0550    -2.0612     0.5910 C.3     
  12 C12           -3.4916    -2.3763     2.0231 C.3     
  13 C13           -2.5819    -3.4269     2.6060 C.2     
  14 C14           -1.8844    -3.3217     3.7532 C.2     
  15 N15           -1.1953    -4.4944     3.9066 N.pl3   
  16 C16           -1.4959    -5.2759     2.8471 C.2     
  17 N17           -2.3296    -4.6330     2.0761 N.2     
  18 C18           -7.6735    -0.8213    -0.2614 C.2     
  19 O19           -7.8488    -1.7257     0.5274 O.2     
  20 N20           -5.3321    -1.4508    -0.1578 N.am    
  21 C21           -6.2857    -0.5192    -0.7652 C.3     
  22 C22           -6.2507    -0.6736    -2.2870 C.3     
  23 C23          -11.0839     0.0971    -1.2043 C.2     
  24 O24          -10.7164     0.6302    -2.2299 O.2     
  25 N25           -8.7199    -0.0864    -0.6874 N.am    
  26 C26          -10.0690    -0.3801    -0.1977 C.3     
  27 C27          -10.2955     0.3376     1.1344 C.3     
  28 C28           -9.3622    -0.2270     2.1742 C.ar    
  29 C29           -8.1090     0.3295     2.3517 C.ar    
  30 C30           -7.2514    -0.1865     3.3040 C.ar    
  31 C31           -7.6488    -1.2636     4.0828 C.ar    
  32 O32           -6.8071    -1.7728     5.0205 O.3     
  33 C33           -8.9069    -1.8199     3.9030 C.ar    
  34 C34           -9.7627    -1.2969     2.9530 C.ar    
  35 C35          -14.6937     0.6719    -1.2467 C.2     
  36 O36          -14.7917     0.4983    -0.0504 O.2     
  37 N37          -12.3998    -0.0683    -0.9650 N.am    
  38 C38          -13.3864     0.3957    -1.9436 C.3     
  39 C39          -13.5942    -0.6827    -3.0088 C.3     
  40 C40          -12.2987    -0.8746    -3.7999 C.3     
  41 C41          -12.5065    -1.9530    -4.8651 C.3     
  42 N42          -11.2660    -2.1367    -5.6226 N.pl3   
  43 C43          -11.2120    -3.0602    -6.6396 C.2     
  44 N44          -12.2644    -3.7723    -6.9299 N.2     
  45 N45          -10.0478    -3.2326    -7.3504 N.pl3   
  46 C46          -18.1567     1.2542    -2.2624 C.2     
  47 O47          -17.9246     0.9681    -3.4179 O.2     
  48 N48          -15.7540     1.1119    -1.9529 N.am    
  49 C49          -17.0249     1.3804    -1.2754 C.3     
  50 C50          -17.0062     2.7977    -0.6993 C.3     
  51 C51          -15.9542     2.8891     0.3758 C.2     
  52 C52          -14.9438     3.7784     0.4209 C.2     
  53 N53          -14.2307     3.5103     1.5581 N.pl3   
  54 C54          -14.8304     2.4658     2.1688 C.2     
  55 N55          -15.8634     2.1028     1.4586 N.2     
  56 C56          -21.6955     2.1661    -2.3536 C.2     
  57 O57          -21.6169     2.7975    -1.3211 O.2     
  58 N58          -19.4268     1.4593    -1.8609 N.am    
  59 C59          -20.5271     1.3366    -2.8204 C.3     
  60 C60          -20.9518    -0.1296    -2.9246 C.3     
  61 C61          -19.8053    -0.9518    -3.5163 C.3     
  62 C62          -20.2299    -2.4180    -3.6205 C.3     
  63 N63          -19.1321    -3.2053    -4.1871 N.pl3   
  64 C64          -19.2829    -4.5587    -4.3762 C.2     
  65 N65          -20.4027    -5.1413    -4.0513 N.2     
  66 N66          -18.2526    -5.2976    -4.9079 N.pl3   
  67 C67          -25.2390     2.4525    -3.2049 C.2     
  68 O68          -25.2027     1.4760    -3.9232 O.2     
  69 N69          -22.8278     2.2062    -3.0834 N.am    
  70 C70          -23.9637     3.0125    -2.6296 C.3     
  71 C71          -23.7835     4.4574    -3.0995 C.3     
  72 C72          -22.5567     5.0663    -2.4176 C.3     
  73 C73          -22.3765     6.5111    -2.8875 C.3     
  74 N74          -21.2019     7.0941    -2.2345 N.pl3   
  75 C75          -20.8395     8.3928    -2.5037 C.2     
  76 N76          -21.5411     9.1052    -3.3398 N.2     
  77 N77          -19.7371     8.9399    -1.8909 N.pl3   
  78 C78          -28.6979     3.5821    -3.5554 C.2     
  79 O79          -28.4288     4.7031    -3.1788 O.2     
  80 N80          -26.4199     3.0368    -2.9211 N.am    
  81 C81          -27.6597     2.4924    -3.4803 C.3     
  82 C82          -28.1703     1.3623    -2.5842 C.3     
  83 C83          -27.1724     0.2027    -2.6072 C.3     
  84 C84          -27.6192    -0.8743    -1.6165 C.3     
  85 C85          -27.1144    -0.3923    -4.0156 C.3     
  86 C86          -32.3219     3.6786    -3.9326 C.2     
  87 O87          -32.4627     2.5375    -4.3186 O.2     
  88 N88          -29.9256     3.3109    -4.0410 N.am    
  89 C89          -30.9692     4.3386    -4.0094 C.3     
  90 C90          -30.8874     5.1876    -5.2796 C.3     
  91 C91          -31.8631     6.3613    -5.1722 C.3     
  92 C92          -31.4141     7.2965    -4.0476 C.3     
  93 C93          -31.8852     7.1288    -6.4955 C.3     
  94 C94          -35.7534     4.8389    -3.4413 C.2     
  95 O95          -35.4160     6.0037    -3.4214 O.2     
  96 N96          -33.3751     4.3565    -3.4349 N.am    
  97 C97          -34.7095     3.7521    -3.4519 C.3     
  98 C98          -34.8836     2.8656    -2.2171 C.3     
  99 O99          -34.8505     3.6759    -1.0405 O.3     
 100 C100         -38.3436     5.9994    -2.0228 C.2     
 101 O101         -37.7473     5.4745    -1.1124 O.2     
 102 N102         -37.0620     4.5165    -3.4538 N.am    
 103 C103         -38.0768     5.5731    -3.4434 C.3     
 104 C104         -39.3694     5.0448    -4.0687 C.3     
 105 C105         -40.3879     6.1819    -4.1719 C.3     
 106 C106         -41.6333     5.6857    -4.9093 C.3     
 107 C107         -39.9398     3.9271    -3.1933 C.3     
 108 O108         -39.2438     6.9621    -1.7689 O.3     
 109 C109           2.9863    -2.4095     1.1744 C.2     
 110 O110           3.2443    -1.3089     1.6137 O.2     
 111 C111          20.4805    -7.3778     5.6973 C.3     
 112 C112          19.4178    -6.2773     5.6761 C.3     
 113 C113          18.1309    -6.8229     5.0542 C.3     
 114 C114          17.0682    -5.7224     5.0330 C.3     
 115 C115          15.7812    -6.2680     4.4110 C.3     
 116 C116          14.7186    -5.1675     4.3898 C.3     
 117 C117          13.4316    -5.7131     3.7679 C.3     
 118 C118          12.3689    -4.6126     3.7467 C.3     
 119 C119          11.0819    -5.1582     3.1247 C.3     
 120 C120          10.0193    -4.0577     3.1035 C.3     
 121 C121           8.7323    -4.6033     2.4816 C.3     
 122 C122           7.6696    -3.5028     2.4604 C.3     
 123 C123           6.3826    -4.0484     1.8384 C.3     
 124 C124           5.3200    -2.9479     1.8172 C.3     
 125 C125           4.0330    -3.4935     1.1953 C.3     
 126 H126           1.5571    -3.5434     0.3162 H       
 127 H127           0.8521    -0.9847     1.5341 H       
 128 H128           0.1692     0.0336    -0.6212 H       
 129 H129           3.0752    -0.8993    -0.5780 H       
 130 H130           2.4466     0.4967    -1.4860 H       
 131 H131           2.4242     0.5094     0.2938 H       
 132 H132          -0.2143    -2.0797    -1.8602 H       
 133 H133           0.9058    -1.0153    -2.7439 H       
 134 H134           1.5344    -2.4113    -1.8359 H       
 135 H135          -1.6298    -0.4874     0.6037 H       
 136 H136          -3.0259    -2.9823     0.0090 H       
 137 H137          -3.4354    -1.4711     2.6277 H       
 138 H138          -4.5169    -2.7462     2.0173 H       
 139 H139          -1.8711    -2.4747     4.4231 H       
 140 H140          -0.6019    -4.7216     4.6395 H       
 141 H141          -1.1129    -6.2700     2.6695 H       
 142 H142          -5.6336    -2.3180     0.1553 H       
 143 H143          -6.0164     0.5025    -0.4974 H       
 144 H144          -6.9602     0.0195    -2.7390 H       
 145 H145          -5.2469    -0.4551    -2.6514 H       
 146 H146          -6.5201    -1.6953    -2.5548 H       
 147 H147          -8.5798     0.6369    -1.3183 H       
 148 H148         -10.1774    -1.4552    -0.0542 H       
 149 H149         -10.1003     1.4028     1.0110 H       
 150 H150         -11.3272     0.1920     1.4548 H       
 151 H151          -7.8001     1.1680     1.7452 H       
 152 H152          -6.2723     0.2480     3.4417 H       
 153 H153          -6.8956    -1.3636     5.8921 H       
 154 H154          -9.2184    -2.6587     4.5078 H       
 155 H155         -10.7439    -1.7268     2.8158 H       
 156 H156         -12.6937    -0.4946    -0.1447 H       
 157 H157         -13.0268     1.3093    -2.4168 H       
 158 H158         -13.8681    -1.6213    -2.5271 H       
 159 H159         -14.3913    -0.3757    -3.6860 H       
 160 H160         -12.0248     0.0640    -4.2816 H       
 161 H161         -11.5016    -1.1816    -3.1228 H       
 162 H162         -12.7804    -2.8916    -4.3834 H       
 163 H163         -13.3036    -1.6460    -5.5423 H       
 164 H164         -10.4829    -1.6067    -5.4065 H       
 165 H165         -12.2262    -4.4239    -7.6475 H       
 166 H166          -9.2647    -2.7026    -7.1344 H       
 167 H167         -10.0097    -3.8841    -8.0680 H       
 168 H168         -15.6756     1.2507    -2.9097 H       
 169 H169         -17.1651     0.6618    -0.4679 H       
 170 H170         -16.7777     3.5094    -1.4927 H       
 171 H171         -17.9823     3.0296    -0.2732 H       
 172 H172         -14.7360     4.5538    -0.3016 H       
 173 H173         -13.4418     3.9823     1.8675 H       
 174 H174         -14.5107     2.0091     3.0938 H       
 175 H175         -19.6125     1.6881    -0.9368 H       
 176 H176         -20.1981     1.6899    -3.7976 H       
 177 H177         -21.1962    -0.5084    -1.9322 H       
 178 H178         -21.8268    -0.2094    -3.5696 H       
 179 H179         -19.5608    -0.5729    -4.5087 H       
 180 H180         -18.9303    -0.8720    -2.8712 H       
 181 H181         -20.4744    -2.7969    -2.6281 H       
 182 H182         -21.1049    -2.4978    -4.2656 H       
 183 H183         -18.2987    -2.7718    -4.4288 H       
 184 H184         -20.5092    -6.0962    -4.1847 H       
 185 H185         -17.4193    -4.8640    -5.1496 H       
 186 H186         -18.3591    -6.2525    -5.0413 H       
 187 H187         -22.8907     1.7011    -3.9092 H       
 188 H188         -24.0147     2.9882    -1.5411 H       
 189 H189         -23.6436     4.4731    -4.1804 H       
 190 H190         -24.6691     5.0372    -2.8393 H       
 191 H191         -22.6966     5.0505    -1.3367 H       
 192 H192         -21.6711     4.4865    -2.6778 H       
 193 H193         -22.2366     6.5269    -3.9684 H       
 194 H194         -23.2621     7.0909    -2.6273 H       
 195 H195         -20.6797     6.5639    -1.6123 H       
 196 H196         -21.2854    10.0215    -3.5297 H       
 197 H197         -19.2150     8.4097    -1.2686 H       
 198 H198         -19.4815     9.8561    -2.0807 H       
 199 H199         -26.4489     3.8178    -2.3466 H       
 200 H200         -27.4674     2.1043    -4.4806 H       
 201 H201         -28.2781     1.7287    -1.5633 H       
 202 H202         -29.1372     1.0170    -2.9503 H       
 203 H203         -26.1846     0.5678    -2.3260 H       
 204 H204         -28.6070    -1.2393    -1.8977 H       
 205 H205         -26.9083    -1.7004    -1.6329 H       
 206 H206         -27.6605    -0.4504    -0.6132 H       
 207 H207         -28.1022    -0.7574    -4.2967 H       
 208 H208         -26.7961     0.3750    -4.7213 H       
 209 H209         -26.4035    -1.2184    -4.0320 H       
 210 H210         -30.1181     2.4353    -4.4113 H       
 211 H211         -30.8256     4.9756    -3.1367 H       
 212 H212         -29.8729     5.5682    -5.3975 H       
 213 H213         -31.1487     4.5758    -6.1430 H       
 214 H214         -32.8623     5.9843    -4.9541 H       
 215 H215         -32.1417     8.0997    -3.9308 H       
 216 H216         -31.3398     6.7352    -3.1162 H       
 217 H217         -30.4410     7.7208    -4.2947 H       
 218 H218         -32.2051     6.4626    -7.2967 H       
 219 H219         -32.5803     7.9650    -6.4190 H       
 220 H220         -30.8860     7.5058    -6.7137 H       
 221 H221         -33.2496     5.2446    -3.0655 H       
 222 H222         -34.8232     3.1479    -4.3519 H       
 223 H223         -35.8405     2.3468    -2.2743 H       
 224 H224         -34.0759     2.1347    -2.1778 H       
 225 H225         -34.9553     3.1789    -0.2176 H       
 226 H226         -37.3318     3.5850    -3.4696 H       
 227 H227         -37.7180     6.4272    -4.0177 H       
 228 H228         -39.1584     4.6546    -5.0644 H       
 229 H229         -40.6658     6.5126    -3.1711 H       
 230 H230         -39.9483     7.0147    -4.7207 H       
 231 H231         -42.3588     6.4958    -4.9828 H       
 232 H232         -41.3553     5.3550    -5.9100 H       
 233 H233         -42.0728     4.8529    -4.3604 H       
 234 H234         -40.1508     4.3173    -2.1976 H       
 235 H235         -40.8606     3.5507    -3.6388 H       
 236 H236         -39.2142     3.1170    -3.1198 H       
 237 H237         -39.3808     7.2017    -0.8421 H       
 238 H238          21.3974    -6.9891     6.1404 H       
 239 H239          20.1199    -8.2197     6.2883 H       
 240 H240          20.6813    -7.7087     4.6784 H       
 241 H241          19.2171    -5.9464     6.6951 H       
 242 H242          19.7784    -5.4354     5.0851 H       
 243 H243          18.3316    -7.1538     4.0352 H       
 244 H244          17.7703    -7.6648     5.6452 H       
 245 H245          16.8674    -5.3915     6.0519 H       
 246 H246          17.4288    -4.8805     4.4419 H       
 247 H247          15.9820    -6.5989     3.3921 H       
 248 H248          15.4206    -7.1099     5.0020 H       
 249 H249          14.5178    -4.8366     5.4088 H       
 250 H250          15.0791    -4.3256     3.7988 H       
 251 H251          13.6323    -6.0440     2.7489 H       
 252 H252          13.0710    -6.5550     4.3589 H       
 253 H253          12.1681    -4.2817     4.7656 H       
 254 H254          12.7295    -3.7707     3.1556 H       
 255 H255          11.2827    -5.4891     2.1058 H       
 256 H256          10.7213    -6.0001     3.7157 H       
 257 H257           9.8185    -3.7268     4.1225 H       
 258 H258          10.3799    -3.2158     2.5125 H       
 259 H259           8.9330    -4.9342     1.4626 H       
 260 H260           8.3717    -5.4452     3.0726 H       
 261 H261           7.4688    -3.1719     3.4793 H       
 262 H262           8.0302    -2.6609     1.8693 H       
 263 H263           6.5834    -4.3793     0.8195 H       
 264 H264           6.0220    -4.8903     2.4294 H       
 265 H265           5.1192    -2.6170     2.8362 H       
 266 H266           5.6806    -2.1060     1.2262 H       
 267 H267           3.6724    -4.3354     1.7863 H       
 268 H268           4.2337    -3.8244     0.1763 H       
@<TRIPOS>BOND
   1    1    2 2
   2    1    4 1
   3    1   10 am
   4    3  109 am
   5    3    4 1
   6    3  126 1
   7    4    5 1
   8    4  127 1
   9    5    6 1
  10    5    7 1
  11    5  128 1
  12    6  129 1
  13    6  130 1
  14    6  131 1
  15    7  132 1
  16    7  133 1
  17    7  134 1
  18    8    9 2
  19    8   11 1
  20    8   20 am
  21   10   11 1
  22   10  135 1
  23   11   12 1
  24   11  136 1
  25   12   13 1
  26   12  137 1
  27   12  138 1
  28   13   14 2
  29   13   17 1
  30   14   15 1
  31   14  139 1
  32   15   16 1
  33   15  140 1
  34   16   17 2
  35   16  141 1
  36   18   19 2
  37   18   21 1
  38   18   25 am
  39   20   21 1
  40   20  142 1
  41   21   22 1
  42   21  143 1
  43   22  144 1
  44   22  145 1
  45   22  146 1
  46   23   24 2
  47   23   26 1
  48   23   37 am
  49   25   26 1
  50   25  147 1
  51   26   27 1
  52   26  148 1
  53   27   28 1
  54   27  149 1
  55   27  150 1
  56   28   29 ar
  57   28   34 ar
  58   29   30 ar
  59   29  151 1
  60   30   31 ar
  61   30  152 1
  62   31   32 1
  63   31   33 ar
  64   32  153 1
  65   33   34 ar
  66   33  154 1
  67   34  155 1
  68   35   36 2
  69   35   38 1
  70   35   48 am
  71   37   38 1
  72   37  156 1
  73   38   39 1
  74   38  157 1
  75   39   40 1
  76   39  158 1
  77   39  159 1
  78   40   41 1
  79   40  160 1
  80   40  161 1
  81   41   42 1
  82   41  162 1
  83   41  163 1
  84   42   43 1
  85   42  164 1
  86   43   44 2
  87   43   45 1
  88   44  165 1
  89   45  166 1
  90   45  167 1
  91   46   47 2
  92   46   49 1
  93   46   58 am
  94   48   49 1
  95   48  168 1
  96   49   50 1
  97   49  169 1
  98   50   51 1
  99   50  170 1
 100   50  171 1
 101   51   52 2
 102   51   55 1
 103   52   53 1
 104   52  172 1
 105   53   54 1
 106   53  173 1
 107   54   55 2
 108   54  174 1
 109   56   57 2
 110   56   59 1
 111   56   69 am
 112   58   59 1
 113   58  175 1
 114   59   60 1
 115   59  176 1
 116   60   61 1
 117   60  177 1
 118   60  178 1
 119   61   62 1
 120   61  179 1
 121   61  180 1
 122   62   63 1
 123   62  181 1
 124   62  182 1
 125   63   64 1
 126   63  183 1
 127   64   65 2
 128   64   66 1
 129   65  184 1
 130   66  185 1
 131   66  186 1
 132   67   68 2
 133   67   70 1
 134   67   80 am
 135   69   70 1
 136   69  187 1
 137   70   71 1
 138   70  188 1
 139   71   72 1
 140   71  189 1
 141   71  190 1
 142   72   73 1
 143   72  191 1
 144   72  192 1
 145   73   74 1
 146   73  193 1
 147   73  194 1
 148   74   75 1
 149   74  195 1
 150   75   76 2
 151   75   77 1
 152   76  196 1
 153   77  197 1
 154   77  198 1
 155   78   79 2
 156   78   81 1
 157   78   88 am
 158   80   81 1
 159   80  199 1
 160   81   82 1
 161   81  200 1
 162   82   83 1
 163   82  201 1
 164   82  202 1
 165   83   84 1
 166   83   85 1
 167   83  203 1
 168   84  204 1
 169   84  205 1
 170   84  206 1
 171   85  207 1
 172   85  208 1
 173   85  209 1
 174   86   87 2
 175   86   89 1
 176   86   96 am
 177   88   89 1
 178   88  210 1
 179   89   90 1
 180   89  211 1
 181   90   91 1
 182   90  212 1
 183   90  213 1
 184   91   92 1
 185   91   93 1
 186   91  214 1
 187   92  215 1
 188   92  216 1
 189   92  217 1
 190   93  218 1
 191   93  219 1
 192   93  220 1
 193   94   95 2
 194   94   97 1
 195   94  102 am
 196   96   97 1
 197   96  221 1
 198   97   98 1
 199   97  222 1
 200   98   99 1
 201   98  223 1
 202   98  224 1
 203   99  225 1
 204  100  101 2
 205  100  103 1
 206  100  108 1
 207  102  103 1
 208  102  226 1
 209  103  104 1
 210  103  227 1
 211  104  105 1
 212  104  107 1
 213  104  228 1
 214  105  106 1
 215  105  229 1
 216  105  230 1
 217  106  231 1
 218  106  232 1
 219  106  233 1
 220  107  234 1
 221  107  235 1
 222  107  236 1
 223  108  237 1
 224  109  110 2
 225  109  125 1
 226  111  112 1
 227  111  238 1
 228  111  239 1
 229  111  240 1
 230  112  113 1
 231  112  241 1
 232  112  242 1
 233  113  114 1
 234  113  243 1
 235  113  244 1
 236  114  115 1
 237  114  245 1
 238  114  246 1
 239  115  116 1
 240  115  247 1
 241  115  248 1
 242  116  117 1
 243  116  249 1
 244  116  250 1
 245  117  118 1
 246  117  251 1
 247  117  252 1
 248  118  119 1
 249  118  253 1
 250  118  254 1
 251  119  120 1
 252  119  255 1
 253  119  256 1
 254  120  121 1
 255  120  257 1
 256  120  258 1
 257  121  122 1
 258  121  259 1
 259  121  260 1
 260  122  123 1
 261  122  261 1
 262  122  262 1
 263  123  124 1
 264  123  263 1
 265  123  264 1
 266  124  125 1
 267  124  265 1
 268  124  266 1
 269  125  267 1
 270  125  268 1

#	End of record

