#	Name: ASD01903080
#	Creating user name:	WinNT
#	Creation time:	15. 06. 2019 19:54

#	Modifying user name:	WinNT
#	Modification time:	15. 06. 2019 19:54

#	Program:	/corina/corina34_cracker 3.40 0067  02.08.2006

@<TRIPOS>MOLECULE
ASD01903080
  36   38    0    0    0
SMALL
NO_CHARGES


@<TRIPOS>ATOM
   1 C1            -0.0162     1.3110     0.0196 C.2     
   2 N2             0.0006    -0.0034     0.0047 N.2     
   3 C3            -1.1695    -0.6135     0.0262 C.2     
   4 N4            -2.2420     0.1364     0.0602 N.2     
   5 S5            -1.6833     1.7412     0.0709 S.3     
   6 C6            -1.2659    -2.0944     0.0117 C.2     
   7 N7             1.0728     2.1660     0.0034 N.pl3   
   8 C8            -0.1832    -3.0003    -0.0243 C.2     
   9 N9            -0.6632    -4.2134    -0.0265 N.2     
  10 N10           -2.0611    -4.1409     0.0075 N.am    
  11 C11           -2.4145    -2.8260     0.0368 C.2     
  12 C12            0.8768     3.5406    -0.0924 C.ar    
  13 N13           -0.3449     4.0182    -0.2720 N.ar    
  14 C14           -0.5741     5.3141    -0.3675 C.ar    
  15 C15            0.4605     6.2242    -0.2828 C.ar    
  16 C16            1.7572     5.7643    -0.0945 C.ar    
  17 C17            1.9657     4.4007     0.0072 C.ar    
  18 C18           -2.9084    -5.1890     0.0159 C.2     
  19 O19           -4.1015    -5.0010     0.0459 O.2     
  20 C20           -2.3677    -6.5954    -0.0123 C.3     
  21 C21           -2.1508    -7.0872     1.4202 C.3     
  22 C22           -3.3673    -7.5120    -0.7204 C.3     
  23 H23            1.9722     1.8070     0.0589 H       
  24 H24            0.8633    -2.7343    -0.0467 H       
  25 H25           -3.4208    -2.4350     0.0667 H       
  26 H26           -1.5841     5.6674    -0.5142 H       
  27 H27            0.2634     7.2831    -0.3624 H       
  28 H28            2.5838     6.4559    -0.0254 H       
  29 H29            2.9612     4.0086     0.1543 H       
  30 H30           -1.4189    -6.6091    -0.5487 H       
  31 H31           -3.0996    -7.0734     1.9566 H       
  32 H32           -1.7597    -8.1044     1.3998 H       
  33 H33           -1.4387    -6.4342     1.9247 H       
  34 H34           -3.5217    -7.1616    -1.7410 H       
  35 H35           -2.9761    -8.5292    -0.7408 H       
  36 H36           -4.3160    -7.4982    -0.1840 H       
@<TRIPOS>BOND
   1    1    2 2
   2    1    7 1
   3    1    5 1
   4    2    3 1
   5    3    4 2
   6    3    6 1
   7    4    5 1
   8    6    8 1
   9    6   11 2
  10    7   12 1
  11    7   23 1
  12    8    9 2
  13    8   24 1
  14    9   10 1
  15   10   11 1
  16   10   18 am
  17   11   25 1
  18   12   13 ar
  19   12   17 ar
  20   13   14 ar
  21   14   15 ar
  22   14   26 1
  23   15   16 ar
  24   15   27 1
  25   16   17 ar
  26   16   28 1
  27   17   29 1
  28   18   19 2
  29   18   20 1
  30   20   21 1
  31   20   22 1
  32   20   30 1
  33   21   31 1
  34   21   32 1
  35   21   33 1
  36   22   34 1
  37   22   35 1
  38   22   36 1

#	End of record

