#	Name: ASD02030049
#	Creating user name:	WinNT
#	Creation time:	15. 06. 2019 20:14

#	Modifying user name:	WinNT
#	Modification time:	15. 06. 2019 20:14

#	Program:	/corina/corina34_cracker 3.40 0067  02.08.2006

@<TRIPOS>MOLECULE
ASD02030049
  49   52    0    0    0
SMALL
NO_CHARGES


@<TRIPOS>ATOM
   1 C1            -3.1625    -4.1851     3.0500 C.ar    
   2 C2            -4.3028    -3.4126     3.2127 C.ar    
   3 C3            -4.4224    -2.2085     2.5532 C.ar    
   4 C4            -3.3920    -1.7663     1.7193 C.ar    
   5 C5            -2.2454    -2.5489     1.5592 C.ar    
   6 C6            -2.1345    -3.7488     2.2278 C.ar    
   7 C7            -3.5145    -0.4773     1.0096 C.2     
   8 C8            -4.8470     0.1055     0.7637 C.ar    
   9 O9            -2.5168     0.1039     0.6279 O.2     
  10 C10           -4.9807     1.4788     0.5365 C.ar    
  11 C11           -6.2261     2.0185     0.3074 C.ar    
  12 C12           -7.3503     1.2004     0.3022 C.ar    
  13 C13           -7.2220    -0.1656     0.5276 C.ar    
  14 C14           -5.9796    -0.7146     0.7514 C.ar    
  15 O15           -8.5763     1.7366     0.0769 O.3     
  16 C16           -8.6518     3.1594    -0.0328 C.3     
  17 C17           -8.4288     3.5712    -1.4894 C.3     
  18 C18          -10.0116     3.6265     0.4186 C.2     
  19 N19          -10.2269     4.9336     0.6672 N.am    
  20 O20          -10.9122     2.8263     0.5583 O.2     
  21 F21           -3.0505    -5.3645     3.6993 F       
  22 C22          -11.4084     5.4656     1.1929 C.ar    
  23 C23          -11.3292     6.8415     1.3364 C.ar    
  24 C24           -9.9664     7.2968     0.8653 C.3     
  25 C25           -9.2549     6.0047     0.4320 C.3     
  26 C26          -12.5843     4.8117     1.5663 C.ar    
  27 C27          -13.6486     5.5286     2.0695 C.ar    
  28 C28          -13.5595     6.9016     2.2088 C.ar    
  29 C29          -12.3984     7.5560     1.8421 C.ar    
  30 H30           -5.0987    -3.7555     3.8572 H       
  31 H31           -5.3109    -1.6079     2.6804 H       
  32 H32           -1.4461    -2.2122     0.9156 H       
  33 H33           -1.2486    -4.3543     2.1050 H       
  34 H34           -4.1081     2.1152     0.5411 H       
  35 H35           -6.3303     3.0791     0.1319 H       
  36 H36           -8.0978    -0.7976     0.5227 H       
  37 H37           -5.8808    -1.7758     0.9264 H       
  38 H38           -7.8849     3.6134     0.5946 H       
  39 H39           -9.2592     3.2149    -2.0989 H       
  40 H40           -8.3699     4.6576    -1.5549 H       
  41 H41           -7.4983     3.1343    -1.8521 H       
  42 H42          -10.0645     7.9816     0.0229 H       
  43 H43           -9.4212     7.7718     1.6810 H       
  44 H44           -8.3584     5.8473     1.0316 H       
  45 H45           -8.9995     6.0504    -0.6267 H       
  46 H46          -12.6603     3.7396     1.4601 H       
  47 H47          -14.5553     5.0164     2.3557 H       
  48 H48          -14.3949     7.4612     2.6030 H       
  49 H49          -12.3271     8.6282     1.9501 H       
@<TRIPOS>BOND
   1    1    2 ar
   2    1   21 1
   3    1    6 ar
   4    2    3 ar
   5    2   30 1
   6    3    4 ar
   7    3   31 1
   8    4    5 ar
   9    4    7 1
  10    5    6 ar
  11    5   32 1
  12    6   33 1
  13    7    8 1
  14    7    9 2
  15    8   10 ar
  16    8   14 ar
  17   10   11 ar
  18   10   34 1
  19   11   12 ar
  20   11   35 1
  21   12   13 ar
  22   12   15 1
  23   13   14 ar
  24   13   36 1
  25   14   37 1
  26   15   16 1
  27   16   17 1
  28   16   18 1
  29   16   38 1
  30   17   39 1
  31   17   40 1
  32   17   41 1
  33   18   19 am
  34   18   20 2
  35   19   22 1
  36   19   25 1
  37   22   23 ar
  38   22   26 ar
  39   23   24 1
  40   23   29 ar
  41   24   25 1
  42   24   42 1
  43   24   43 1
  44   25   44 1
  45   25   45 1
  46   26   27 ar
  47   26   46 1
  48   27   28 ar
  49   27   47 1
  50   28   29 ar
  51   28   48 1
  52   29   49 1

#	End of record

