#	Name: ASD09120021
#	Creating user name:	WinNT
#	Creation time:	15. 06. 2019 21:21

#	Modifying user name:	WinNT
#	Modification time:	15. 06. 2019 21:21

#	Program:	/corina/corina34_cracker 3.40 0067  02.08.2006

@<TRIPOS>MOLECULE
ASD09120021
  33   35    0    0    0
SMALL
NO_CHARGES


@<TRIPOS>ATOM
   1 C1            -0.0186     1.3753    -0.0353 C.ar    
   2 C2            -0.0008    -0.0032    -0.0641 C.ar    
   3 C3             1.2045    -0.6838    -0.0669 C.ar    
   4 C4             2.3991     0.0120    -0.0405 C.ar    
   5 C5             2.3967     1.3932    -0.0111 C.ar    
   6 C6             1.1833     2.0858    -0.0090 C.ar    
   7 N7            -1.2743    -0.7573    -0.0915 N.pl3   
   8 O8            -2.3358    -0.1601    -0.0886 O.2     
   9 O9            -1.2605    -1.9750    -0.1169 O.2     
  10 C10            1.1719     3.5627     0.0214 C.2     
  11 O11            2.2199     4.1784     0.0443 O.2     
  12 N12           -0.0005     4.2276     0.0238 N.am    
  13 C13           -0.0135     5.6184     0.1363 C.ar    
  14 Cl14           3.8971     2.2657     0.0232 Cl      
  15 C15            1.0706     7.7491    -0.1631 C.ar    
  16 C16            1.0748     6.3618    -0.2715 C.ar    
  17 C17           -1.1401     6.2800     0.6620 C.ar    
  18 C18           -0.0046     8.4137     0.3454 C.ar    
  19 C19           -2.2835     5.5855     1.0915 C.ar    
  20 C20           -3.3329     6.2980     1.5890 C.ar    
  21 N21           -3.3016     7.6206     1.6770 N.ar    
  22 C22           -2.2680     8.3335     1.2952 C.ar    
  23 C23           -1.1336     7.6949     0.7675 C.ar    
  24 H24           -0.9601     1.9045    -0.0376 H       
  25 H25            1.2119    -1.7636    -0.0895 H       
  26 H26            3.3359    -0.5253    -0.0426 H       
  27 H27           -0.8351     3.7394    -0.0526 H       
  28 H28            1.9347     8.3091    -0.4889 H       
  29 H29            1.9404     5.8610    -0.6794 H       
  30 H30            0.0112     9.4909     0.4217 H       
  31 H31           -2.3298     4.5084     1.0283 H       
  32 H32           -4.2151     5.7706     1.9207 H       
  33 H33           -2.2895     9.4094     1.3870 H       
@<TRIPOS>BOND
   1    1    2 ar
   2    1    6 ar
   3    1   24 1
   4    2    3 ar
   5    2    7 1
   6    3    4 ar
   7    3   25 1
   8    4    5 ar
   9    4   26 1
  10    5    6 ar
  11    5   14 1
  12    6   10 1
  13    7    8 2
  14    7    9 2
  15   10   11 2
  16   10   12 am
  17   12   13 1
  18   12   27 1
  19   13   17 ar
  20   13   16 ar
  21   15   16 ar
  22   15   18 ar
  23   15   28 1
  24   16   29 1
  25   17   19 ar
  26   17   23 ar
  27   18   23 ar
  28   18   30 1
  29   19   20 ar
  30   19   31 1
  31   20   21 ar
  32   20   32 1
  33   21   22 ar
  34   22   23 ar
  35   22   33 1

#	End of record

