#	Name: ASD03090966
#	Creating user name:	WinNT
#	Creation time:	15. 06. 2019 20:29

#	Modifying user name:	WinNT
#	Modification time:	15. 06. 2019 20:29

#	Program:	/corina/corina34_cracker 3.40 0067  02.08.2006

@<TRIPOS>MOLECULE
ASD03090966
  51   54    0    0    0
SMALL
NO_CHARGES


@<TRIPOS>ATOM
   1 N1            -0.0175     1.3432    -0.0857 N.am    
   2 C2             0.0012    -0.0044    -0.0677 C.2     
   3 O3             1.0649    -0.5993    -0.0773 O.2     
   4 N4            -1.1464    -0.6880    -0.0392 N.2     
   5 C5             1.2409     2.0928    -0.1169 C.3     
   6 C6             1.6250     3.6498    -3.5377 C.ar    
   7 C7             1.2311     3.4656    -2.2258 C.ar    
   8 C8             1.6487     2.3305    -1.5480 C.ar    
   9 C9             2.4507     1.4194    -2.2182 C.ar    
  10 C10            2.8048     1.6713    -3.5301 C.ar    
  11 N11            2.3886     2.7618    -4.1437 N.ar    
  12 S12            0.2595    -3.0387    -0.0301 S.3     
  13 C13           -1.1280    -2.0187    -0.0214 C.2     
  14 N14           -2.1987    -2.8518     0.0077 N.pl3   
  15 C15           -1.9391    -4.1884     0.0220 C.2     
  16 C16           -0.6634    -4.5510     0.0061 C.2     
  17 O17           -7.3741    -0.8848     0.0781 O.3     
  18 C18           -8.4123    -1.7492    -0.3960 C.3     
  19 C19           -8.2087    -3.1342     0.2329 C.3     
  20 O20           -6.9212    -3.6205    -0.1616 O.3     
  21 C21           -5.8806    -2.7488    -0.0610 C.ar    
  22 C22           -6.1064    -1.3819     0.0568 C.ar    
  23 C23           -4.5831    -3.2357    -0.0763 C.ar    
  24 C24           -3.5113    -2.3592     0.0230 C.ar    
  25 C25           -3.7397    -0.9950     0.1377 C.ar    
  26 C26           -5.0330    -0.5092     0.1545 C.ar    
  27 F27           -8.2679    -3.0328     1.6270 F       
  28 F28           -9.2025    -4.0087    -0.2198 F       
  29 F29           -9.6595    -1.2390    -0.0199 F       
  30 F30           -8.3434    -1.8491    -1.7897 F       
  31 C31           -0.1141    -5.9543     0.0170 C.3     
  32 C32           -1.2961     2.0582    -0.0802 C.3     
  33 C33           -1.7241     2.3267     1.3640 C.3     
  34 H34            1.1060     3.0502     0.3863 H       
  35 H35            2.0170     1.5211     0.3919 H       
  36 H36            1.3003     4.5292    -4.0740 H       
  37 H37            0.6058     4.1967    -1.7348 H       
  38 H38            2.7947     0.5244    -1.7211 H       
  39 H39            3.4293     0.9666    -4.0591 H       
  40 H40           -2.7344    -4.9188     0.0453 H       
  41 H41           -4.4058    -4.2972    -0.1662 H       
  42 H42           -2.9060    -0.3127     0.2139 H       
  43 H43           -5.2085     0.5527     0.2435 H       
  44 H44            0.9752    -5.9182    -0.0007 H       
  45 H45           -0.4460    -6.4674     0.9195 H       
  46 H46           -0.4740    -6.4922    -0.8600 H       
  47 H47           -1.1850     3.0053    -0.6083 H       
  48 H48           -2.0536     1.4519    -0.5769 H       
  49 H49           -1.8352     1.3796     1.8920 H       
  50 H50           -0.9666     2.9329     1.8607 H       
  51 H51           -2.6754     2.8587     1.3681 H       
@<TRIPOS>BOND
   1    1    2 am
   2    1    5 1
   3    1   32 1
   4    2    3 2
   5    2    4 1
   6    4   13 2
   7    5    8 1
   8    5   34 1
   9    5   35 1
  10    6    7 ar
  11    6   11 ar
  12    6   36 1
  13    7    8 ar
  14    7   37 1
  15    8    9 ar
  16    9   10 ar
  17    9   38 1
  18   10   11 ar
  19   10   39 1
  20   12   13 1
  21   12   16 1
  22   13   14 1
  23   14   15 1
  24   14   24 1
  25   15   16 2
  26   15   40 1
  27   16   31 1
  28   17   18 1
  29   17   22 1
  30   18   19 1
  31   18   29 1
  32   18   30 1
  33   19   20 1
  34   19   27 1
  35   19   28 1
  36   20   21 1
  37   21   22 ar
  38   21   23 ar
  39   22   26 ar
  40   23   24 ar
  41   23   41 1
  42   24   25 ar
  43   25   26 ar
  44   25   42 1
  45   26   43 1
  46   31   44 1
  47   31   45 1
  48   31   46 1
  49   32   33 1
  50   32   47 1
  51   32   48 1
  52   33   49 1
  53   33   50 1
  54   33   51 1

#	End of record

