#	Name: ASD01915479
#	Creating user name:	WinNT
#	Creation time:	15. 06. 2019 20:05

#	Modifying user name:	WinNT
#	Modification time:	15. 06. 2019 20:05

#	Program:	/corina/corina34_cracker 3.40 0067  02.08.2006

@<TRIPOS>MOLECULE
ASD01915479
  36   38    0    0    0
SMALL
NO_CHARGES


@<TRIPOS>ATOM
   1 C1            -0.0167     1.3789     0.0096 C.ar    
   2 C2             0.0021    -0.0041     0.0020 C.ar    
   3 N3             1.1012     2.0811     0.0027 N.ar    
   4 C4             2.2823     1.5011    -0.0116 C.ar    
   5 C5             2.3820     0.1077    -0.0187 C.ar    
   6 C6             1.2206    -0.6644    -0.0124 C.ar    
   7 C7             3.5457     2.3220    -0.0221 C.3     
   8 C8             4.6381     1.6064     0.7686 C.3     
   9 N9             4.7918     0.2248     0.3209 N.am    
  10 C10            3.7212    -0.5159    -0.0315 C.2     
  11 O11            3.8563    -1.6797    -0.3552 O.2     
  12 C12            6.1307    -0.3660     0.2529 C.3     
  13 C13           -1.2874    -0.7839     0.0098 C.3     
  14 O14           -1.7075    -1.0232    -1.3349 O.3     
  15 C15           -2.8620    -1.7194    -1.5060 C.ar    
  16 C16           -3.3283    -1.9873    -2.7842 C.ar    
  17 C17           -3.5729    -2.1681    -0.4019 C.ar    
  18 C18           -4.7462    -2.8756    -0.5769 C.ar    
  19 C19           -5.2139    -3.1377    -1.8513 C.ar    
  20 C20           -4.5042    -2.6964    -2.9555 C.ar    
  21 F21           -4.9628    -2.9535    -4.2000 F       
  22 H22           -0.9654     1.8949     0.0169 H       
  23 H23            1.2692    -1.7433    -0.0181 H       
  24 H24            3.8771     2.4632    -1.0509 H       
  25 H25            3.3495     3.2942     0.4300 H       
  26 H26            5.5822     2.1337     0.6321 H       
  27 H27            4.3760     1.6124     1.8266 H       
  28 H28            6.3686    -0.8374     1.2064 H       
  29 H29            6.1579    -1.1142    -0.5392 H       
  30 H30            6.8617     0.4143     0.0409 H       
  31 H31           -1.1331    -1.7362     0.5171 H       
  32 H32           -2.0541    -0.2132     0.5339 H       
  33 H33           -2.7745    -1.6426    -3.6450 H       
  34 H34           -3.2085    -1.9644     0.5942 H       
  35 H35           -5.2988    -3.2249     0.2828 H       
  36 H36           -6.1313    -3.6914    -1.9858 H       
@<TRIPOS>BOND
   1    1    2 ar
   2    1    3 ar
   3    1   22 1
   4    2   13 1
   5    2    6 ar
   6    3    4 ar
   7    4    5 ar
   8    4    7 1
   9    5    6 ar
  10    5   10 1
  11    6   23 1
  12    7    8 1
  13    7   24 1
  14    7   25 1
  15    8    9 1
  16    8   26 1
  17    8   27 1
  18    9   10 am
  19    9   12 1
  20   10   11 2
  21   12   28 1
  22   12   29 1
  23   12   30 1
  24   13   14 1
  25   13   31 1
  26   13   32 1
  27   14   15 1
  28   15   16 ar
  29   15   17 ar
  30   16   20 ar
  31   16   33 1
  32   17   18 ar
  33   17   34 1
  34   18   19 ar
  35   18   35 1
  36   19   20 ar
  37   19   36 1
  38   20   21 1

#	End of record

