#	Name: ASD03331817
#	Creating user name:	WinNT
#	Creation time:	15. 06. 2019 20:39

#	Modifying user name:	WinNT
#	Modification time:	15. 06. 2019 20:39

#	Program:	/corina/corina34_cracker 3.40 0067  02.08.2006

@<TRIPOS>MOLECULE
ASD03331817
  51   54    0    0    0
SMALL
NO_CHARGES


@<TRIPOS>ATOM
   1 C1             0.6809     1.4688     0.1585 C.ar    
   2 C2             0.8799     0.1063     0.1728 C.ar    
   3 C3             2.1556    -0.4188     0.0087 C.ar    
   4 C4             3.2401     0.4120    -0.1706 C.ar    
   5 C5             1.7710     2.3249    -0.0223 C.ar    
   6 C6             1.9158     3.7782    -0.0888 C.2     
   7 C7             3.0632     1.7911    -0.1885 C.ar    
   8 N8             3.9300     2.8512    -0.3445 N.pl3   
   9 C9             3.2329     4.0357    -0.2835 C.2     
  10 C10            0.8116     4.7962     0.0350 C.3     
  11 C11            0.0190     4.8358    -1.2461 C.ar    
  12 C12           -0.6301     5.9770    -3.2484 C.ar    
  13 C13           -1.4347     4.9082    -3.5967 C.ar    
  14 C14           -1.5175     3.8060    -2.7665 C.ar    
  15 C15           -0.7904     3.7697    -1.5914 C.ar    
  16 C16            0.0969     5.9407    -2.0732 C.ar    
  17 Cl17          -0.4706    -0.9611     0.3976 Cl      
  18 C18            3.8287     5.3833    -0.4104 C.ar    
  19 C19            4.9660     5.7188     0.3254 C.ar    
  20 C20            5.5171     6.9776     0.2022 C.ar    
  21 C21            4.9445     7.9065    -0.6483 C.ar    
  22 C22            3.8169     7.5802    -1.3806 C.ar    
  23 C23            3.2593     6.3230    -1.2708 C.ar    
  24 C24           -0.1104     4.4102     1.1934 C.3     
  25 C25           -1.1417     5.4903     1.3959 C.2     
  26 O26           -1.1395     6.4683     0.6865 O.2     
  27 O27           -2.0627     5.3657     2.3644 O.3     
  28 C28           -3.0248     6.4445     2.5018 C.3     
  29 C29           -3.9866     6.1271     3.6486 C.3     
  30 H30           -0.3127     1.8736     0.2820 H       
  31 H31            2.2987    -1.4892     0.0221 H       
  32 H32            4.2271    -0.0078    -0.2968 H       
  33 H33            4.8877     2.7738    -0.4773 H       
  34 H34            1.2430     5.7788     0.2259 H       
  35 H35           -0.5654     6.8381    -3.8970 H       
  36 H36           -2.0027     4.9366    -4.5148 H       
  37 H37           -2.1461     2.9711    -3.0386 H       
  38 H38           -0.8545     2.9082    -0.9432 H       
  39 H39            0.7256     6.7756    -1.8011 H       
  40 H40            5.4135     4.9948     0.9902 H       
  41 H41            6.3973     7.2385     0.7711 H       
  42 H42            5.3794     8.8907    -0.7407 H       
  43 H43            3.3747     8.3098    -2.0428 H       
  44 H44            2.3816     6.0681    -1.8460 H       
  45 H45           -0.6100     3.4695     0.9622 H       
  46 H46            0.4784     4.2948     2.1034 H       
  47 H47           -2.4991     7.3751     2.7155 H       
  48 H48           -3.5876     6.5498     1.5743 H       
  49 H49           -4.7088     6.9369     3.7518 H       
  50 H50           -4.5123     5.1964     3.4349 H       
  51 H51           -3.4238     6.0218     4.5761 H       
@<TRIPOS>BOND
   1    1    2 ar
   2    1    5 ar
   3    1   30 1
   4    2    3 ar
   5    2   17 1
   6    3    4 ar
   7    3   31 1
   8    4    7 ar
   9    4   32 1
  10    5    7 ar
  11    5    6 1
  12    6    9 2
  13    6   10 1
  14    7    8 1
  15    8    9 1
  16    8   33 1
  17    9   18 1
  18   10   11 1
  19   10   24 1
  20   10   34 1
  21   11   16 ar
  22   11   15 ar
  23   12   13 ar
  24   12   16 ar
  25   12   35 1
  26   13   14 ar
  27   13   36 1
  28   14   15 ar
  29   14   37 1
  30   15   38 1
  31   16   39 1
  32   18   19 ar
  33   18   23 ar
  34   19   20 ar
  35   19   40 1
  36   20   21 ar
  37   20   41 1
  38   21   22 ar
  39   21   42 1
  40   22   23 ar
  41   22   43 1
  42   23   44 1
  43   24   25 1
  44   24   45 1
  45   24   46 1
  46   25   26 2
  47   25   27 1
  48   27   28 1
  49   28   29 1
  50   28   47 1
  51   28   48 1
  52   29   49 1
  53   29   50 1
  54   29   51 1

#	End of record

