#	Name: ASD01950004
#	Creating user name:	WinNT
#	Creation time:	15. 06. 2019 20:14

#	Modifying user name:	WinNT
#	Modification time:	15. 06. 2019 20:14

#	Program:	/corina/corina34_cracker 3.40 0067  02.08.2006

@<TRIPOS>MOLECULE
ASD01950004
  51   53    0    0    0
SMALL
NO_CHARGES


@<TRIPOS>ATOM
   1 O1            -6.1908    -6.0955    -1.8141 O.3     
   2 C2            -5.3156    -5.4690    -2.7541 C.3     
   3 C3            -5.3194    -3.9563    -2.5248 C.3     
   4 C4            -4.2704    -3.3013    -3.4256 C.3     
   5 C5            -4.2149    -1.8001    -3.1356 C.3     
   6 C6            -3.3033    -0.9436    -4.0166 C.3     
   7 C7            -4.8225    -0.8568    -4.1758 C.3     
   8 S8            -4.3707    -1.3342    -1.3894 S.o2    
   9 O9            -5.7210    -1.4477    -0.9616 O.2     
  10 O10           -3.3110    -1.8958    -0.6271 O.2     
  11 N11           -4.0709     0.2943    -1.3678 N.am    
  12 C12           -2.7696     0.7718    -1.5939 C.ar    
  13 C13           -1.7671    -0.1024    -1.9991 C.ar    
  14 O14           -2.0459    -1.4221    -2.1770 O.3     
  15 C15           -0.9460    -2.2824    -2.4806 C.3     
  16 C16           -0.4833     0.3715    -2.2221 C.ar    
  17 C17           -0.1970     1.7141    -2.0422 C.ar    
  18 C18           -1.1919     2.5898    -1.6386 C.ar    
  19 C19           -2.4816     2.1230    -1.4184 C.ar    
  20 N20           -3.4889     3.0084    -1.0105 N.pl3   
  21 C21           -3.3095     4.3873    -1.1580 C.ar    
  22 C22           -3.0514     5.1781    -0.0466 C.ar    
  23 C23           -2.8741     6.5404    -0.1953 C.ar    
  24 C24           -2.9533     7.1175    -1.4496 C.ar    
  25 C25           -3.2108     6.3334    -2.5605 C.ar    
  26 C26           -3.3835     4.9692    -2.4198 C.ar    
  27 F27           -3.6349     4.2036    -3.5042 F       
  28 I28           -2.6835     9.1835    -1.6684 I       
  29 F29           -0.9087     3.8992    -1.4636 F       
  30 F30            1.0554     2.1713    -2.2602 F       
  31 O31           -6.6108    -3.4304    -2.8373 O.3     
  32 H32           -6.2381    -7.0574    -1.9013 H       
  33 H33           -4.3045    -5.8541    -2.6217 H       
  34 H34           -5.6565    -5.6838    -3.7669 H       
  35 H35           -5.0844    -3.7464    -1.4813 H       
  36 H36           -3.2945    -3.7455    -3.2293 H       
  37 H37           -4.5383    -3.4600    -4.4701 H       
  38 H38           -2.7974    -0.1000    -3.5471 H       
  39 H39           -2.7430    -1.4496    -4.8028 H       
  40 H40           -5.2617    -1.3057    -5.0667 H       
  41 H41           -5.3161     0.0440    -3.8109 H       
  42 H42           -4.7940     0.9184    -1.1990 H       
  43 H43           -1.3152    -3.2894    -2.6748 H       
  44 H44           -0.4260    -1.9096    -3.3631 H       
  45 H45           -0.2579    -2.3042    -1.6356 H       
  46 H46            0.2950    -0.3081    -2.5365 H       
  47 H47           -4.3103     2.6645    -0.6259 H       
  48 H48           -2.9896     4.7290     0.9336 H       
  49 H49           -2.6736     7.1556     0.6694 H       
  50 H50           -3.2727     6.7872    -3.5386 H       
  51 H51           -6.8861    -3.5810    -3.7520 H       
@<TRIPOS>BOND
   1    1    2 1
   2    1   32 1
   3    2    3 1
   4    2   33 1
   5    2   34 1
   6    3    4 1
   7    3   31 1
   8    3   35 1
   9    4    5 1
  10    4   36 1
  11    4   37 1
  12    5    6 1
  13    5    8 1
  14    5    7 1
  15    6    7 1
  16    6   38 1
  17    6   39 1
  18    7   40 1
  19    7   41 1
  20    8    9 2
  21    8   10 2
  22    8   11 am
  23   11   12 1
  24   11   42 1
  25   12   13 ar
  26   12   19 ar
  27   13   14 1
  28   13   16 ar
  29   14   15 1
  30   15   43 1
  31   15   44 1
  32   15   45 1
  33   16   17 ar
  34   16   46 1
  35   17   18 ar
  36   17   30 1
  37   18   19 ar
  38   18   29 1
  39   19   20 1
  40   20   21 1
  41   20   47 1
  42   21   22 ar
  43   21   26 ar
  44   22   23 ar
  45   22   48 1
  46   23   24 ar
  47   23   49 1
  48   24   25 ar
  49   24   28 1
  50   25   26 ar
  51   25   50 1
  52   26   27 1
  53   31   51 1

#	End of record

