#	Name: ASD04882175
#	Creating user name:	WinNT
#	Creation time:	15. 06. 2019 20:54

#	Modifying user name:	WinNT
#	Modification time:	15. 06. 2019 20:54

#	Program:	/corina/corina34_cracker 3.40 0067  02.08.2006

@<TRIPOS>MOLECULE
ASD04882175
  70   74    0    0    0
SMALL
NO_CHARGES


@<TRIPOS>ATOM
   1 C1             0.1255     1.4840    -0.4335 C.2     
   2 C2             0.1456     0.0187    -0.4840 C.2     
   3 N3             1.1861    -0.6594     0.0395 N.am    
   4 C4             1.1516    -2.0587     0.0989 C.ar    
   5 C5             2.3302    -2.7944    -0.0530 C.ar    
   6 C6             2.2975    -4.1830     0.0062 C.ar    
   7 C7             1.1044    -4.8385     0.2146 C.ar    
   8 C8            -0.0779    -4.1089     0.3673 C.ar    
   9 C9            -0.0471    -2.7125     0.3134 C.ar    
  10 N10            3.5387    -2.1357    -0.2643 N.3     
  11 C11            3.5440    -1.4489    -1.5635 C.3     
  12 C12            4.6712    -3.0664    -0.1593 C.3     
  13 C13            5.9813    -2.2914    -0.3183 C.3     
  14 N14            5.9866    -1.6046    -1.6174 N.3     
  15 C15            4.8542    -0.6739    -1.7225 C.3     
  16 C16            7.1988    -0.9439    -1.8294 C.ar    
  17 C17            7.9921    -1.2777    -2.9195 C.ar    
  18 C18            7.6110     0.0527    -0.9535 C.ar    
  19 C19            8.8100     0.7038    -1.1660 C.ar    
  20 C20            9.6001     0.3652    -2.2496 C.ar    
  21 C21            9.1903    -0.6224    -3.1261 C.ar    
  22 C22           -1.3558    -4.8114     0.5905 C.2     
  23 N23           -1.3838    -6.1577     0.6474 N.am    
  24 O24           -2.3839    -4.1758     0.7232 O.2     
  25 O25           -0.7773    -0.5852    -0.9988 O.2     
  26 C26           -2.6528    -6.8553     0.8691 C.3     
  27 C27           -2.4114    -8.3427     0.8902 C.ar    
  28 C28           -0.8643     2.2901    -0.9186 C.2     
  29 O29            1.0788     2.2718     0.1056 O.3     
  30 C30            0.7227     3.5560    -0.0289 C.2     
  31 C31           -0.4724     3.6123    -0.6571 C.2     
  32 C32            7.5464    -2.3541    -3.8754 C.3     
  33 C33            1.5217     4.7425     0.4452 C.3     
  34 C34           -2.1195    -8.9784     2.0820 C.ar    
  35 C35           -1.8979   -10.3439     2.1013 C.ar    
  36 C36           -1.9685   -11.0721     0.9276 C.ar    
  37 C37           -2.2605   -10.4353    -0.2642 C.ar    
  38 C38           -2.4874    -9.0720    -0.2820 C.ar    
  39 Br39          -1.4979   -11.2142     3.7317 Br      
  40 H40            1.9588    -0.1786     0.3752 H       
  41 H41            3.2098    -4.7489    -0.1118 H       
  42 H42            1.0823    -5.9174     0.2597 H       
  43 H43           -0.9590    -2.1461     0.4314 H       
  44 H44            3.4568    -2.1838    -2.3637 H       
  45 H45            2.7037    -0.7563    -1.6121 H       
  46 H46            4.6526    -3.5531     0.8158 H       
  47 H47            4.5967    -3.8197    -0.9436 H       
  48 H48            6.0686    -1.5565     0.4820 H       
  49 H49            6.8217    -2.9840    -0.2697 H       
  50 H50            4.8727    -0.1872    -2.6976 H       
  51 H51            4.9286     0.0794    -0.9382 H       
  52 H52            6.9942     0.3180    -0.1076 H       
  53 H53            9.1310     1.4786    -0.4855 H       
  54 H54           10.5371     0.8766    -2.4138 H       
  55 H55            9.8097    -0.8844    -3.9712 H       
  56 H56           -0.5636    -6.6647     0.5415 H       
  57 H57           -3.0775    -6.5426     1.8230 H       
  58 H58           -3.3469    -6.6112     0.0649 H       
  59 H59           -1.7727     1.9719    -1.4085 H       
  60 H60           -1.0224     4.5065    -0.9106 H       
  61 H61            6.9545    -1.9079    -4.6746 H       
  62 H62            8.4205    -2.8460    -4.3020 H       
  63 H63            6.9417    -3.0869    -3.3411 H       
  64 H64            2.4409     4.3962     0.9176 H       
  65 H65            1.7675     5.3783    -0.4054 H       
  66 H66            0.9346     5.3113     1.1663 H       
  67 H67           -2.0641    -8.4093     2.9982 H       
  68 H68           -1.7952   -12.1380     0.9421 H       
  69 H69           -2.3157   -11.0039    -1.1807 H       
  70 H70           -2.7155    -8.5748    -1.2133 H       
@<TRIPOS>BOND
   1    1    2 1
   2    1   29 1
   3    1   28 2
   4    2    3 am
   5    2   25 2
   6    3    4 1
   7    3   40 1
   8    4    5 ar
   9    4    9 ar
  10    5    6 ar
  11    5   10 1
  12    6    7 ar
  13    6   41 1
  14    7    8 ar
  15    7   42 1
  16    8    9 ar
  17    8   22 1
  18    9   43 1
  19   10   11 1
  20   10   12 1
  21   11   15 1
  22   11   44 1
  23   11   45 1
  24   12   13 1
  25   12   46 1
  26   12   47 1
  27   13   14 1
  28   13   48 1
  29   13   49 1
  30   14   15 1
  31   14   16 1
  32   15   50 1
  33   15   51 1
  34   16   17 ar
  35   16   18 ar
  36   17   32 1
  37   17   21 ar
  38   18   19 ar
  39   18   52 1
  40   19   20 ar
  41   19   53 1
  42   20   21 ar
  43   20   54 1
  44   21   55 1
  45   22   23 am
  46   22   24 2
  47   23   26 1
  48   23   56 1
  49   26   27 1
  50   26   57 1
  51   26   58 1
  52   27   34 ar
  53   27   38 ar
  54   28   31 1
  55   28   59 1
  56   29   30 1
  57   30   31 2
  58   30   33 1
  59   31   60 1
  60   32   61 1
  61   32   62 1
  62   32   63 1
  63   33   64 1
  64   33   65 1
  65   33   66 1
  66   34   35 ar
  67   34   67 1
  68   35   36 ar
  69   35   39 1
  70   36   37 ar
  71   36   68 1
  72   37   38 ar
  73   37   69 1
  74   38   70 1

#	End of record

