#	Name: ASD01180379
#	Creating user name:	WinNT
#	Creation time:	15. 06. 2019 19:07

#	Modifying user name:	WinNT
#	Modification time:	15. 06. 2019 19:07

#	Program:	/corina/corina34_cracker 3.40 0067  02.08.2006

@<TRIPOS>MOLECULE
ASD01180379
  60   62    0    0    0
SMALL
NO_CHARGES


@<TRIPOS>ATOM
   1 C1            -2.2163    -1.0481    -4.1931 C.2     
   2 C2            -1.6447    -1.8063    -3.0657 C.ar    
   3 C3            -0.6976    -2.8173    -3.2946 C.ar    
   4 C4            -0.1932    -3.4950    -2.2182 C.ar    
   5 C5            -0.6304    -3.1653    -0.9361 C.ar    
   6 N6            -1.5262    -2.2059    -0.7471 N.ar    
   7 C7            -2.0328    -1.5257    -1.7542 C.ar    
   8 O8            -1.8685    -1.2961    -5.3306 O.2     
   9 O9            -3.1287    -0.0836    -3.9627 O.3     
  10 N10           -0.1226    -3.8493     0.1549 N.pl3   
  11 C11            0.9516    -4.8282    -0.0294 C.3     
  12 C12            1.7186    -4.9970     1.2837 C.3     
  13 C13            2.3806    -3.6705     1.6618 C.3     
  14 C14            3.0303    -3.7997     3.0410 C.3     
  15 C15           -0.7267    -8.5847    -1.1918 C.ar    
  16 C16            0.4525    -8.1332    -1.7813 C.ar    
  17 C17            0.9898    -6.9199    -1.4025 C.ar    
  18 C18            0.3599    -6.1521    -0.4393 C.ar    
  19 C19           -0.8107    -6.5953     0.1490 C.ar    
  20 C20           -1.3568    -7.8075    -0.2224 C.ar    
  21 C21           -1.3124    -9.8858    -1.5995 C.ar    
  22 C22           -1.6780   -10.8213    -0.6338 C.ar    
  23 C23           -2.2222   -12.0299    -1.0187 C.ar    
  24 C24           -2.4046   -12.3133    -2.3602 C.ar    
  25 C25           -2.0431   -11.3884    -3.3231 C.ar    
  26 C26           -1.5041   -10.1740    -2.9492 C.ar    
  27 C27           -2.9989   -13.6348    -2.7743 C.3     
  28 F28           -4.3909   -13.5170    -2.8495 F       
  29 F29           -2.4936   -14.0015    -4.0263 F       
  30 F30           -2.6639   -14.6126    -1.8316 F       
  31 C31            1.1401    -8.9687    -2.8303 C.3     
  32 C32            3.4500    -3.3205     0.6251 C.3     
  33 C33           -3.6487     0.6221    -5.1203 C.3     
  34 H34           -0.3747    -3.0548    -4.2975 H       
  35 H35            0.5364    -4.2784    -2.3606 H       
  36 H36           -2.7572    -0.7474    -1.5647 H       
  37 H37           -0.4781    -3.6804     1.0415 H       
  38 H38            1.6325    -4.4786    -0.8055 H       
  39 H39            1.0278    -5.2961     2.0721 H       
  40 H40            2.4840    -5.7633     1.1614 H       
  41 H41            1.6276    -2.8829     1.6873 H       
  42 H42            3.7834    -4.5874     3.0155 H       
  43 H43            3.5020    -2.8547     3.3104 H       
  44 H44            2.2685    -4.0491     3.7796 H       
  45 H45            1.9038    -6.5692    -1.8585 H       
  46 H46           -1.2983    -5.9920     0.9004 H       
  47 H47           -2.2711    -8.1525     0.2375 H       
  48 H48           -1.5353   -10.6013     0.4139 H       
  49 H49           -2.5059   -12.7557    -0.2710 H       
  50 H50           -2.1873   -11.6149    -4.3691 H       
  51 H51           -1.2269    -9.4505    -3.7016 H       
  52 H52            0.7596    -8.6999    -3.8157 H       
  53 H53            2.2141    -8.7865    -2.7934 H       
  54 H54            0.9438   -10.0239    -2.6404 H       
  55 H55            4.1790    -4.1288     0.5680 H       
  56 H56            2.9807    -3.1849    -0.3494 H       
  57 H57            3.9520    -2.3984     0.9180 H       
  58 H58           -2.8291     1.1135    -5.6446 H       
  59 H59           -4.1350    -0.0872    -5.7900 H       
  60 H60           -4.3723     1.3697    -4.7953 H       
@<TRIPOS>BOND
   1    1    2 1
   2    1    8 2
   3    1    9 1
   4    2    3 ar
   5    2    7 ar
   6    3    4 ar
   7    3   34 1
   8    4    5 ar
   9    4   35 1
  10    5    6 ar
  11    5   10 1
  12    6    7 ar
  13    7   36 1
  14    9   33 1
  15   10   11 1
  16   10   37 1
  17   11   12 1
  18   11   18 1
  19   11   38 1
  20   12   13 1
  21   12   39 1
  22   12   40 1
  23   13   14 1
  24   13   32 1
  25   13   41 1
  26   14   42 1
  27   14   43 1
  28   14   44 1
  29   15   16 ar
  30   15   20 ar
  31   15   21 1
  32   16   17 ar
  33   16   31 1
  34   17   18 ar
  35   17   45 1
  36   18   19 ar
  37   19   20 ar
  38   19   46 1
  39   20   47 1
  40   21   22 ar
  41   21   26 ar
  42   22   23 ar
  43   22   48 1
  44   23   24 ar
  45   23   49 1
  46   24   25 ar
  47   24   27 1
  48   25   26 ar
  49   25   50 1
  50   26   51 1
  51   27   28 1
  52   27   29 1
  53   27   30 1
  54   31   52 1
  55   31   53 1
  56   31   54 1
  57   32   55 1
  58   32   56 1
  59   32   57 1
  60   33   58 1
  61   33   59 1
  62   33   60 1

#	End of record

