#	Name: ASD01940675
#	Creating user name:	WinNT
#	Creation time:	15. 06. 2019 20:13

#	Modifying user name:	WinNT
#	Modification time:	15. 06. 2019 20:13

#	Program:	/corina/corina34_cracker 3.40 0067  02.08.2006

@<TRIPOS>MOLECULE
ASD01940675
  41   43    0    0    0
SMALL
NO_CHARGES


@<TRIPOS>ATOM
   1 C1             0.3541     0.9610     1.1985 C.ar    
   2 C2            -0.1486     0.2328     0.1360 C.ar    
   3 C3             0.6184     0.0397    -1.0003 C.ar    
   4 C4             1.8939     0.5756    -1.0779 C.ar    
   5 C5             2.4038     1.3082    -0.0142 C.ar    
   6 C6             1.6295     1.5012     1.1288 C.ar    
   7 N7             2.1387     2.2399     2.2051 N.am    
   8 S8             1.7540     1.8130     3.7582 S.o2    
   9 C9             2.3838     0.1207     3.9316 C.3     
  10 O10            2.5054     2.7098     4.5645 O.2     
  11 O11            0.3332     1.8212     3.7821 O.2     
  12 F12            0.1225    -0.6730    -2.0354 F       
  13 F13            2.6409     0.3852    -2.1874 F       
  14 N14            3.6935     1.8517    -0.0893 N.pl3   
  15 C15            4.8019     1.0629     0.2195 C.ar    
  16 C16            6.0695     1.6341     0.2648 C.ar    
  17 C17            4.6368    -0.2917     0.4871 C.ar    
  18 C18            5.7298    -1.0733     0.7928 C.ar    
  19 C19            7.0038    -0.5039     0.8338 C.ar    
  20 C20            7.1659     0.8578     0.5699 C.ar    
  21 C21            6.2436     3.1036    -0.0207 C.3     
  22 C22            8.1415    -1.3135     1.1513 C.1     
  23 C23            2.0799    -0.6158     5.2378 C.3     
  24 C24            1.3597    -1.0159     3.9486 C.3     
  25 C25            9.0742    -1.9772     1.4115 C.1     
  26 H26           -0.2487     1.1130     2.0816 H       
  27 H27           -1.1421    -0.1868     0.1928 H       
  28 H28            2.7166     3.0014     2.0404 H       
  29 H29            3.3448    -0.0743     3.4558 H       
  30 H30            3.8154     2.7763    -0.3560 H       
  31 H31            3.6509    -0.7316     0.4556 H       
  32 H32            5.6009    -2.1252     1.0009 H       
  33 H33            8.1503     1.3009     0.6009 H       
  34 H34            6.1557     3.6671     0.9082 H       
  35 H35            7.2274     3.2747    -0.4577 H       
  36 H36            5.4738     3.4318    -0.7190 H       
  37 H37            2.8408    -1.2956     5.6211 H       
  38 H38            1.5015    -0.0834     5.9929 H       
  39 H39            0.3076    -0.7468     3.8555 H       
  40 H40            1.6469    -1.9590     3.4836 H       
  41 H41            9.9084    -2.5709     1.6443 H       
@<TRIPOS>BOND
   1    1    2 ar
   2    1    6 ar
   3    1   26 1
   4    2    3 ar
   5    2   27 1
   6    3    4 ar
   7    3   12 1
   8    4    5 ar
   9    4   13 1
  10    5    6 ar
  11    5   14 1
  12    6    7 1
  13    7    8 am
  14    7   28 1
  15    8    9 1
  16    8   10 2
  17    8   11 2
  18    9   23 1
  19    9   24 1
  20    9   29 1
  21   14   15 1
  22   14   30 1
  23   15   16 ar
  24   15   17 ar
  25   16   21 1
  26   16   20 ar
  27   17   18 ar
  28   17   31 1
  29   18   19 ar
  30   18   32 1
  31   19   20 ar
  32   19   22 1
  33   20   33 1
  34   21   34 1
  35   21   35 1
  36   21   36 1
  37   22   25 3
  38   23   24 1
  39   23   37 1
  40   23   38 1
  41   24   39 1
  42   24   40 1
  43   25   41 1

#	End of record

