#	Name: ASD02198831
#	Creating user name:	WinNT
#	Creation time:	15. 06. 2019 20:20

#	Modifying user name:	WinNT
#	Modification time:	15. 06. 2019 20:20

#	Program:	/corina/corina34_cracker 3.40 0067  02.08.2006

@<TRIPOS>MOLECULE
ASD02198831
  54   58    0    0    0
SMALL
NO_CHARGES


@<TRIPOS>ATOM
   1 C1            -0.2616     1.0363     0.5371 C.3     
   2 C2            -4.2616     3.2575     1.8247 C.2     
   3 C3            -3.7395     2.7533     0.6784 C.2     
   4 N4            -2.4220     2.8811     0.4018 N.pl3   
   5 N5            -1.5929     3.4709     1.1814 N.2     
   6 C6            -1.9665     4.0039     2.3247 C.2     
   7 C7            -3.3827     3.9178     2.7167 C.2     
   8 C8            -1.9396     2.3420    -0.7953 C.ar    
   9 C9            -0.8855     1.4369    -0.7748 C.ar    
  10 C10           -0.4098     0.9053    -1.9561 C.ar    
  11 C11           -0.9844     1.2748    -3.1652 C.ar    
  12 C12           -2.0383     2.1796    -3.1860 C.ar    
  13 C13           -2.5182     2.7071    -2.0051 C.ar    
  14 C14           -0.9834     4.6757     3.1986 C.2     
  15 N15           -1.0569     5.9568     3.6687 N.pl3   
  16 N16            0.0767     6.1872     4.4582 N.2     
  17 C17            0.8084     5.1015     4.4712 C.2     
  18 C18            0.1773     4.1269     3.6982 C.2     
  19 C19           -2.0817     6.8751     3.4073 C.ar    
  20 C20           -2.5755     7.6761     4.4286 C.ar    
  21 C21           -3.5861     8.5805     4.1676 C.ar    
  22 C22           -4.1063     8.6889     2.8909 C.ar    
  23 C23           -3.6170     7.8924     1.8718 C.ar    
  24 C24           -2.6022     6.9904     2.1251 C.ar    
  25 O25           -3.7828     4.3963     3.7675 O.2     
  26 N26           -0.5006     0.7349    -4.3649 N.pl3   
  27 N27            0.5504    -0.1826    -4.4914 N.2     
  28 C28            0.7087    -0.4507    -5.7627 C.2     
  29 C29           -0.2350     0.2863    -6.4866 C.2     
  30 C30           -0.9695     1.0031    -5.6045 C.2     
  31 C31           -0.4034    -0.4750     0.7289 C.3     
  32 C32            1.2213     1.4129     0.5327 C.3     
  33 H33           -0.7657     1.5549     1.3526 H       
  34 H34           -5.3139     3.1613     2.0478 H       
  35 H35           -4.3845     2.2441    -0.0224 H       
  36 H36            0.4098     0.2021    -1.9403 H       
  37 H37           -2.4849     2.4667    -4.1265 H       
  38 H38           -3.3375     3.4106    -2.0213 H       
  39 H39            1.7438     4.9794     4.9970 H       
  40 H40            0.5370     3.1246     3.5184 H       
  41 H41           -2.1699     7.5916     5.4260 H       
  42 H42           -3.9708     9.2035     4.9615 H       
  43 H43           -4.8965     9.3969     2.6893 H       
  44 H44           -4.0258     7.9789     0.8759 H       
  45 H45           -2.2205     6.3686     1.3288 H       
  46 H46            1.4419    -1.1244    -6.1810 H       
  47 H47           -0.3581     0.2810    -7.5595 H       
  48 H48           -1.7805     1.6737    -5.8475 H       
  49 H49            0.0478    -0.7647     1.6779 H       
  50 H50           -1.4599    -0.7432     0.7321 H       
  51 H51            0.1007    -0.9936    -0.0865 H       
  52 H52            1.7255     0.8943    -0.2828 H       
  53 H53            1.3224     2.4896     0.3961 H       
  54 H54            1.6726     1.1231     1.4816 H       
@<TRIPOS>BOND
   1    1   31 1
   2    1   32 1
   3    1    9 1
   4    1   33 1
   5    2    3 2
   6    2    7 1
   7    2   34 1
   8    3    4 1
   9    3   35 1
  10    4    5 1
  11    4    8 1
  12    5    6 2
  13    6    7 1
  14    6   14 1
  15    7   25 2
  16    8    9 ar
  17    8   13 ar
  18    9   10 ar
  19   10   11 ar
  20   10   36 1
  21   11   12 ar
  22   11   26 1
  23   12   13 ar
  24   12   37 1
  25   13   38 1
  26   14   15 1
  27   14   18 2
  28   15   16 1
  29   15   19 1
  30   16   17 2
  31   17   18 1
  32   17   39 1
  33   18   40 1
  34   19   20 ar
  35   19   24 ar
  36   20   21 ar
  37   20   41 1
  38   21   22 ar
  39   21   42 1
  40   22   23 ar
  41   22   43 1
  42   23   24 ar
  43   23   44 1
  44   24   45 1
  45   26   27 1
  46   26   30 1
  47   27   28 2
  48   28   29 1
  49   28   46 1
  50   29   30 2
  51   29   47 1
  52   30   48 1
  53   31   49 1
  54   31   50 1
  55   31   51 1
  56   32   52 1
  57   32   53 1
  58   32   54 1

#	End of record

