#	Name: ASD01828001
#	Creating user name:	WinNT
#	Creation time:	15. 06. 2019 19:36

#	Modifying user name:	WinNT
#	Modification time:	15. 06. 2019 19:36

#	Program:	/corina/corina34_cracker 3.40 0067  02.08.2006

@<TRIPOS>MOLECULE
ASD01828001
  48   51    0    0    0
SMALL
NO_CHARGES


@<TRIPOS>ATOM
   1 C1            -0.2562     1.4690    -0.1838 C.2     
   2 C2             0.0021    -0.0041     0.0020 C.3     
   3 O3             0.6675     2.2258    -0.3674 O.2     
   4 O4            -1.5130     1.9394    -0.1509 O.3     
   5 C5             1.3029    -0.3738    -0.6629 C.ar    
   6 C6             2.4926     0.1510    -0.1936 C.ar    
   7 C7             3.6859    -0.1881    -0.8036 C.ar    
   8 C8             3.6895    -1.0523    -1.8825 C.ar    
   9 C9             2.4999    -1.5777    -2.3512 C.ar    
  10 C10            1.3071    -1.2420    -1.7386 C.ar    
  11 C11            0.0831    -0.3181     1.4737 C.ar    
  12 C12           -0.4826    -1.4799     1.9647 C.ar    
  13 C13           -0.4083    -1.7679     3.3147 C.ar    
  14 C14            0.2322    -0.8944     4.1736 C.ar    
  15 C15            0.7987     0.2669     3.6824 C.ar    
  16 C16            0.7282     0.5528     2.3318 C.ar    
  17 O17           -1.0634    -0.7525    -0.5868 O.3     
  18 N18           -3.1657     4.3125    -2.0456 N.3     
  19 C19           -1.8603     3.6746    -1.8277 C.3     
  20 C20           -1.6869     3.3688    -0.3372 C.3     
  21 C21           -2.9404     3.8362     0.4131 C.3     
  22 C22           -4.1576     3.1016    -0.1627 C.3     
  23 C23           -4.2629     3.4153    -1.6578 C.3     
  24 C24           -3.2542     5.5920    -1.3286 C.3     
  25 C25           -3.1198     5.3410     0.1760 C.3     
  26 H26           -0.8125     3.8959     0.0445 H       
  27 H27            2.4898     0.8261     0.6493 H       
  28 H28            4.6153     0.2224    -0.4374 H       
  29 H29            4.6217    -1.3166    -2.3595 H       
  30 H30            2.5027    -2.2526    -3.1944 H       
  31 H31            0.3780    -1.6554    -2.1024 H       
  32 H32           -0.9830    -2.1623     1.2937 H       
  33 H33           -0.8509    -2.6753     3.6984 H       
  34 H34            0.2896    -1.1191     5.2284 H       
  35 H35            1.2988     0.9495     4.3535 H       
  36 H36            1.1740     1.4583     1.9475 H       
  37 H37           -1.1742    -0.5997    -1.5352 H       
  38 H38           -1.8093     2.7469    -2.3976 H       
  39 H39           -1.0677     4.3472    -2.1556 H       
  40 H40           -2.8420     3.6218     1.4773 H       
  41 H41           -4.0358     2.0275    -0.0226 H       
  42 H42           -5.0613     3.4380     0.3456 H       
  43 H43           -5.2179     3.8997    -1.8613 H       
  44 H44           -4.1951     2.4897    -2.2293 H       
  45 H45           -2.4520     6.2512    -1.6604 H       
  46 H46           -4.2175     6.0586    -1.5348 H       
  47 H47           -4.0193     5.6863     0.6856 H       
  48 H48           -2.2518     5.8772     0.5596 H       
@<TRIPOS>BOND
   1    1    2 1
   2    1    3 2
   3    1    4 1
   4    2    5 1
   5    2   11 1
   6    2   17 1
   7    4   20 1
   8    5    6 ar
   9    5   10 ar
  10    6    7 ar
  11    6   27 1
  12    7    8 ar
  13    7   28 1
  14    8    9 ar
  15    8   29 1
  16    9   10 ar
  17    9   30 1
  18   10   31 1
  19   11   12 ar
  20   11   16 ar
  21   12   13 ar
  22   12   32 1
  23   13   14 ar
  24   13   33 1
  25   14   15 ar
  26   14   34 1
  27   15   16 ar
  28   15   35 1
  29   16   36 1
  30   17   37 1
  31   18   19 1
  32   18   23 1
  33   18   24 1
  34   19   20 1
  35   19   38 1
  36   19   39 1
  37   20   21 1
  38   20   26 1
  39   21   22 1
  40   21   25 1
  41   21   40 1
  42   22   23 1
  43   22   41 1
  44   22   42 1
  45   23   43 1
  46   23   44 1
  47   24   25 1
  48   24   45 1
  49   24   46 1
  50   25   47 1
  51   25   48 1

#	End of record

