#	Name: ASD00170278
#	Creating user name:	WinNT
#	Creation time:	15. 06. 2019 18:31

#	Modifying user name:	WinNT
#	Modification time:	15. 06. 2019 18:31

#	Program:	/corina/corina34_cracker 3.40 0067  02.08.2006

@<TRIPOS>MOLECULE
ASD00170278
  28   29    0    0    0
SMALL
NO_CHARGES


@<TRIPOS>ATOM
   1 C1            -0.0321     1.3655    -0.0063 C.2     
   2 C2            -0.0024    -0.0113     0.0006 C.2     
   3 C3            -1.3262    -0.5973     0.0286 C.2     
   4 C4            -2.2955     0.3039     0.0419 C.2     
   5 S5            -1.6396     1.9310     0.0282 S.3     
   6 C6             1.2307    -0.7953    -0.0190 C.2     
   7 C7             1.9276    -1.1121     1.2498 C.ar    
   8 O8             1.6854    -1.1883    -1.0778 O.2     
   9 N9             1.0845     2.1747    -0.0316 N.pl3   
  10 C10           -1.5753    -2.0836     0.0409 C.3     
  11 C11           -3.7662    -0.0238     0.0712 C.3     
  12 N12            1.4891    -0.5915     2.3892 N.ar    
  13 C13            2.0790    -0.8475     3.5370 C.ar    
  14 C14            3.1875    -1.6758     3.5980 C.ar    
  15 C15            3.6789    -2.2410     2.4310 C.ar    
  16 C16            3.0345    -1.9586     1.2375 C.ar    
  17 H17            1.9695     1.7822     0.0286 H       
  18 H18            0.9849     3.1364    -0.1097 H       
  19 H19           -1.6159    -2.4367     1.0713 H       
  20 H20           -2.5226    -2.2973    -0.4541 H       
  21 H21           -0.7675    -2.5917    -0.4857 H       
  22 H22           -4.1015    -0.0973     1.1058 H       
  23 H23           -4.3240     0.7630    -0.4365 H       
  24 H24           -3.9367    -0.9743    -0.4344 H       
  25 H25            1.6939    -0.4054     4.4440 H       
  26 H26            3.6646    -1.8792     4.5453 H       
  27 H27            4.5418    -2.8901     2.4526 H       
  28 H28            3.3901    -2.3817     0.3096 H       
@<TRIPOS>BOND
   1    1    2 2
   2    1    9 1
   3    1    5 1
   4    2    3 1
   5    2    6 1
   6    3    4 2
   7    3   10 1
   8    4    5 1
   9    4   11 1
  10    6    7 1
  11    6    8 2
  12    7   12 ar
  13    7   16 ar
  14    9   17 1
  15    9   18 1
  16   10   19 1
  17   10   20 1
  18   10   21 1
  19   11   22 1
  20   11   23 1
  21   11   24 1
  22   12   13 ar
  23   13   14 ar
  24   13   25 1
  25   14   15 ar
  26   14   26 1
  27   15   16 ar
  28   15   27 1
  29   16   28 1

#	End of record

