#	Name: ASD00843280
#	Creating user name:	WinNT
#	Creation time:	15. 06. 2019 18:46

#	Modifying user name:	WinNT
#	Modification time:	15. 06. 2019 18:46

#	Program:	/corina/corina34_cracker 3.40 0067  02.08.2006

@<TRIPOS>MOLECULE
ASD00843280
  92   97    0    0    0
SMALL
NO_CHARGES


@<TRIPOS>ATOM
   1 N1             0.7379     1.1422    -0.6142 N.ar    
   2 C2             0.9535    -0.1466    -0.8183 C.ar    
   3 C3             0.8947    -1.0496     0.2357 C.ar    
   4 C4             0.6068    -0.5835     1.5064 C.ar    
   5 C5             0.3868     0.7764     1.6787 C.ar    
   6 C6             0.4613     1.6164     0.5858 C.ar    
   7 C7             1.1405    -2.5174    -0.0017 C.3     
   8 C8             0.8854    -3.3092     1.2631 C.2     
   9 C9             0.2584    -3.0297    -1.1420 C.3     
  10 C10           -1.1826    -2.6997    -0.8495 C.2     
  11 N11           -2.1520    -3.1093    -1.6915 N.am    
  12 O12           -1.4700    -2.0655     0.1435 O.2     
  13 C13           -3.5466    -2.6955    -1.4854 C.3     
  14 C14           -4.4313    -3.9455    -1.4466 C.3     
  15 C15           -4.2009    -4.7682    -2.7164 C.3     
  16 C16           -2.7381    -5.2135    -2.7793 C.3     
  17 C17           -1.8333    -3.9733    -2.8364 C.3     
  18 C18           -5.1083    -6.0000    -2.6973 C.3     
  19 C19           -6.5725    -5.5560    -2.6361 C.3     
  20 C20           -7.4768    -6.7899    -2.6787 C.3     
  21 N21           -7.2254    -7.5400    -3.9158 N.3     
  22 C22           -5.8379    -8.0173    -3.9748 C.3     
  23 C23           -4.8847    -6.8200    -3.9709 C.3     
  24 H24           -7.8755    -8.3055    -4.0130 H       
  25 O25           -0.1662    -3.3912     1.8619 O.2     
  26 N26            2.0428    -3.9039     1.5980 N.am    
  27 C27            2.6002    -2.7676    -0.3040 C.ar    
  28 C28            3.0688    -3.6068     0.6994 C.ar    
  29 C29            3.4344    -2.3363    -1.3106 C.ar    
  30 C30            4.7591    -2.7393    -1.3306 C.ar    
  31 C31            5.2390    -3.5762    -0.3357 C.ar    
  32 C32            4.4020    -4.0094     0.6749 C.ar    
  33 Cl33           5.8149    -2.1985    -2.5981 Cl      
  34 F34            6.5311    -3.9702    -0.3538 F       
  35 C35            1.8687    -6.5256     2.4170 C.ar    
  36 C36            0.5864    -6.8582     2.0047 C.ar    
  37 C37            2.8639    -7.4845     2.4246 C.ar    
  38 C38            2.5849    -8.7761     2.0216 C.ar    
  39 C39            1.3037    -9.1139     1.6083 C.ar    
  40 C40            0.3037    -8.1540     1.6002 C.ar    
  41 O41            1.0297   -10.3847     1.2124 O.3     
  42 O42           -0.3919    -5.9150     1.9978 O.3     
  43 C43            2.1081   -11.3217     1.2469 C.3     
  44 C44           -1.6884    -6.3281     1.5613 C.3     
  45 C45           -2.6497    -5.1393     1.6218 C.3     
  46 O46            1.2344    -0.5910    -2.0690 O.3     
  47 C47            1.2019     0.3736    -3.1229 C.3     
  48 C48            1.6326    -0.2881    -4.4334 C.3     
  49 F49            2.8977    -0.8631    -4.2717 F       
  50 F50            0.7099    -1.2810    -4.7798 F       
  51 S51            2.2305    -4.8774     2.9243 S.o2    
  52 O52            3.6138    -4.8518     3.2483 O.2     
  53 O53            1.2104    -4.5069     3.8416 O.2     
  54 H54            0.5540    -1.2621     2.3449 H       
  55 H55            0.1595     1.1728     2.6573 H       
  56 H56            0.2914     2.6752     0.7145 H       
  57 H57            0.5581    -2.5531    -2.0754 H       
  58 H58            0.3727    -4.1099    -1.2325 H       
  59 H59           -3.6325    -2.1577    -0.5412 H       
  60 H60           -3.8614    -2.0504    -2.3057 H       
  61 H61           -4.1756    -4.5453    -0.5731 H       
  62 H62           -5.4786    -3.6485    -1.3906 H       
  63 H63           -4.4332    -4.1598    -3.5904 H       
  64 H64           -2.4983    -5.8013    -1.8932 H       
  65 H65           -2.5802    -5.8190    -3.6718 H       
  66 H66           -2.0097    -3.4348    -3.7675 H       
  67 H67           -0.7889    -4.2801    -2.7815 H       
  68 H68           -4.8759    -6.6101    -1.8245 H       
  69 H69           -6.7481    -5.0079    -1.7104 H       
  70 H70           -6.7937    -4.9131    -3.4880 H       
  71 H71           -7.2646    -7.4256    -1.8190 H       
  72 H72           -8.5203    -6.4765    -2.6497 H       
  73 H73           -5.6334    -8.6472    -3.1091 H       
  74 H74           -5.6911    -8.5953    -4.8872 H       
  75 H75           -5.0794    -6.1970    -4.8438 H       
  76 H76           -3.8545    -7.1750    -3.9989 H       
  77 H77            3.0560    -1.6844    -2.0841 H       
  78 H78            4.7825    -4.6612     1.4474 H       
  79 H79            3.8615    -7.2236     2.7459 H       
  80 H80            3.3644    -9.5235     2.0278 H       
  81 H81           -0.6940    -8.4150     1.2793 H       
  82 H82            2.9095   -10.9775     0.5931 H       
  83 H83            2.4828   -11.4070     2.2669 H       
  84 H84            1.7546   -12.2951     0.9070 H       
  85 H85           -1.6271    -6.6940     0.5364 H       
  86 H86           -2.0537    -7.1242     2.2101 H       
  87 H87           -3.6386    -5.4544     1.2888 H       
  88 H88           -2.7109    -4.7734     2.6467 H       
  89 H89           -2.2844    -4.3433     0.9730 H       
  90 H90            0.1892     0.7628    -3.2280 H       
  91 H91            1.8829     1.1915    -2.8878 H       
  92 H92            1.6727     0.4620    -5.2232 H       
@<TRIPOS>BOND
   1    1    2 ar
   2    1    6 ar
   3    2    3 ar
   4    2   46 1
   5    3    4 ar
   6    3    7 1
   7    4    5 ar
   8    4   54 1
   9    5    6 ar
  10    5   55 1
  11    6   56 1
  12    7    8 1
  13    7    9 1
  14    7   27 1
  15    8   25 2
  16    8   26 am
  17    9   10 1
  18    9   57 1
  19    9   58 1
  20   10   11 am
  21   10   12 2
  22   11   13 1
  23   11   17 1
  24   13   14 1
  25   13   59 1
  26   13   60 1
  27   14   15 1
  28   14   61 1
  29   14   62 1
  30   15   16 1
  31   15   18 1
  32   15   63 1
  33   16   17 1
  34   16   64 1
  35   16   65 1
  36   17   66 1
  37   17   67 1
  38   18   19 1
  39   18   23 1
  40   18   68 1
  41   19   20 1
  42   19   69 1
  43   19   70 1
  44   20   21 1
  45   20   71 1
  46   20   72 1
  47   21   22 1
  48   21   24 1
  49   22   23 1
  50   22   73 1
  51   22   74 1
  52   23   75 1
  53   23   76 1
  54   26   51 am
  55   26   28 1
  56   27   28 ar
  57   27   29 ar
  58   28   32 ar
  59   29   30 ar
  60   29   77 1
  61   30   31 ar
  62   30   33 1
  63   31   32 ar
  64   31   34 1
  65   32   78 1
  66   35   36 ar
  67   35   37 ar
  68   35   51 1
  69   36   42 1
  70   36   40 ar
  71   37   38 ar
  72   37   79 1
  73   38   39 ar
  74   38   80 1
  75   39   40 ar
  76   39   41 1
  77   40   81 1
  78   41   43 1
  79   42   44 1
  80   43   82 1
  81   43   83 1
  82   43   84 1
  83   44   45 1
  84   44   85 1
  85   44   86 1
  86   45   87 1
  87   45   88 1
  88   45   89 1
  89   46   47 1
  90   47   48 1
  91   47   90 1
  92   47   91 1
  93   48   49 1
  94   48   50 1
  95   48   92 1
  96   51   52 2
  97   51   53 2

#	End of record

