#	Name: ASD01900334
#	Creating user name:	WinNT
#	Creation time:	15. 06. 2019 19:51

#	Modifying user name:	WinNT
#	Modification time:	15. 06. 2019 19:51

#	Program:	/corina/corina34_cracker 3.40 0067  02.08.2006

@<TRIPOS>MOLECULE
ASD01900334
  41   44    0    0    0
SMALL
NO_CHARGES


@<TRIPOS>ATOM
   1 C1            -0.0168     1.3891     0.0097 C.ar    
   2 C2             0.0021    -0.0041     0.0020 C.ar    
   3 C3             1.2224    -0.6606    -0.0132 C.ar    
   4 C4             2.3820     0.0992    -0.0202 C.ar    
   5 C5             2.2884     1.4815    -0.0119 C.ar    
   6 N6             1.1169     2.0792     0.0026 N.ar    
   7 C7            -1.3131     2.1060     0.0197 C.2     
   8 O8            -2.3544     1.4790     0.0212 O.2     
   9 N9            -1.3378     3.4535     0.0271 N.am    
  10 N10           -4.0866     5.7298     0.0525 N.am    
  11 C11           -2.7427     5.4762     0.0448 C.2     
  12 C12           -2.5683     4.1341     0.0367 C.2     
  13 C13           -3.8517     3.5436     0.0395 C.2     
  14 C14           -4.7569     4.5428     0.0492 C.2     
  15 S15           -4.7846     7.2314     0.0702 S.o2    
  16 O16           -6.0849     7.0631     0.6180 O.2     
  17 O17           -3.8183     8.1166     0.6197 O.2     
  18 N18           -6.3985     7.7540    -3.5192 N.ar    
  19 C19           -6.1944     7.4065    -2.2718 C.ar    
  20 C20           -5.0109     7.7211    -1.6072 C.ar    
  21 C21           -4.0267     8.4099    -2.2569 C.ar    
  22 C22           -4.2494     8.7819    -3.5962 C.ar    
  23 C23           -3.2839     9.4907    -4.3285 C.ar    
  24 C24           -3.5371     9.8318    -5.6223 C.ar    
  25 C25           -4.7426     9.4870    -6.2296 C.ar    
  26 C26           -5.7006     8.8001    -5.5493 C.ar    
  27 C27           -5.4762     8.4297    -4.2121 C.ar    
  28 H28           -0.9212    -0.5644     0.0082 H       
  29 H29            1.2690    -1.7395    -0.0191 H       
  30 H30            3.3489    -0.3818    -0.0317 H       
  31 H31            3.1898     2.0763    -0.0170 H       
  32 H32           -0.5068     3.9539     0.0259 H       
  33 H33           -1.9574     6.2177     0.0448 H       
  34 H34           -4.0681     2.4856     0.0351 H       
  35 H35           -5.8302     4.4231     0.0537 H       
  36 H36           -6.9638     6.8611    -1.7455 H       
  37 H37           -3.1032     8.6624    -1.7570 H       
  38 H38           -2.3460     9.7642    -3.8683 H       
  39 H39           -2.7938    10.3771    -6.1848 H       
  40 H40           -4.9199     9.7697    -7.2568 H       
  41 H41           -6.6295     8.5404    -6.0351 H       
@<TRIPOS>BOND
   1    1    2 ar
   2    1    6 ar
   3    1    7 1
   4    2    3 ar
   5    2   28 1
   6    3    4 ar
   7    3   29 1
   8    4    5 ar
   9    4   30 1
  10    5    6 ar
  11    5   31 1
  12    7    8 2
  13    7    9 am
  14    9   12 1
  15    9   32 1
  16   10   11 1
  17   10   14 1
  18   10   15 am
  19   11   12 2
  20   11   33 1
  21   12   13 1
  22   13   14 2
  23   13   34 1
  24   14   35 1
  25   15   16 2
  26   15   17 2
  27   15   20 1
  28   18   19 ar
  29   18   27 ar
  30   19   20 ar
  31   19   36 1
  32   20   21 ar
  33   21   22 ar
  34   21   37 1
  35   22   23 ar
  36   22   27 ar
  37   23   24 ar
  38   23   38 1
  39   24   25 ar
  40   24   39 1
  41   25   26 ar
  42   25   40 1
  43   26   27 ar
  44   26   41 1

#	End of record

