#	Name: ASD01911123
#	Creating user name:	WinNT
#	Creation time:	15. 06. 2019 19:57

#	Modifying user name:	WinNT
#	Modification time:	15. 06. 2019 19:57

#	Program:	/corina/corina34_cracker 3.40 0067  02.08.2006

@<TRIPOS>MOLECULE
ASD01911123
  41   44    0    0    0
SMALL
NO_CHARGES


@<TRIPOS>ATOM
   1 C1             0.3333     1.4654    -0.4276 C.2     
   2 O2             1.2336     2.1987    -0.0638 O.2     
   3 S3            -0.6297    -1.2507    -0.4099 S.3     
   4 C4             0.5632    -2.4305    -0.7377 C.2     
   5 N5             1.7111    -1.8675    -0.9386 N.2     
   6 C6             1.7626    -0.5614    -0.8612 C.2     
   7 C7             0.5738     0.0259    -0.5743 C.2     
   8 N8            -0.8864     1.9750    -0.6905 N.am    
   9 C9            -1.9488     1.1257    -1.2460 C.3     
  10 C10           -2.4953     1.7866    -2.5154 C.3     
  11 C11           -2.9376     3.2155    -2.1918 C.3     
  12 C12           -1.7342     4.0260    -1.7050 C.3     
  13 C13           -1.1807     3.3891    -0.4212 C.3     
  14 O14           -4.8134     0.7585    -2.3690 O.3     
  15 N15           -5.5567     0.0939    -3.0597 N.2     
  16 C16           -4.9938    -0.1621    -4.2085 C.2     
  17 N17           -3.7762     0.4185    -4.1962 N.2     
  18 C18           -3.6742     0.9984    -3.0253 C.2     
  19 O19           -5.5326    -0.8790    -5.2259 O.3     
  20 C20           -6.8321    -1.2618    -5.1185 C.ar    
  21 C21           -7.6111    -0.7894    -4.0723 C.ar    
  22 C22           -8.9337    -1.1808    -3.9654 C.ar    
  23 C23           -9.4787    -2.0433    -4.9023 C.ar    
  24 C24           -8.7029    -2.5141    -5.9447 C.ar    
  25 C25           -7.3831    -2.1210    -6.0581 C.ar    
  26 F26           -9.6936    -0.7221    -2.9469 F       
  27 H27            0.3842    -3.4950    -0.7722 H       
  28 H28            2.6729    -0.0001    -1.0122 H       
  29 H29           -1.5417     0.1447    -1.4911 H       
  30 H30           -2.7506     1.0187    -0.5155 H       
  31 H31           -1.7162     1.8107    -3.2773 H       
  32 H32           -3.3497     3.6798    -3.0877 H       
  33 H33           -3.6990     3.1922    -1.4122 H       
  34 H34           -0.9623     4.0290    -2.4746 H       
  35 H35           -2.0452     5.0498    -1.4970 H       
  36 H36           -1.9212     3.4630     0.3752 H       
  37 H37           -0.2667     3.9020    -0.1218 H       
  38 H38           -7.1855    -0.1172    -3.3420 H       
  39 H39          -10.5112    -2.3486    -4.8179 H       
  40 H40           -9.1300    -3.1865    -6.6740 H       
  41 H41           -6.7793    -2.4859    -6.8759 H       
@<TRIPOS>BOND
   1    1    2 2
   2    1    7 1
   3    1    8 am
   4    3    4 1
   5    3    7 1
   6    4    5 2
   7    4   27 1
   8    5    6 1
   9    6    7 2
  10    6   28 1
  11    8    9 1
  12    8   13 1
  13    9   10 1
  14    9   29 1
  15    9   30 1
  16   10   11 1
  17   10   18 1
  18   10   31 1
  19   11   12 1
  20   11   32 1
  21   11   33 1
  22   12   13 1
  23   12   34 1
  24   12   35 1
  25   13   36 1
  26   13   37 1
  27   14   15 1
  28   14   18 1
  29   15   16 2
  30   16   17 1
  31   16   19 1
  32   17   18 2
  33   19   20 1
  34   20   21 ar
  35   20   25 ar
  36   21   22 ar
  37   21   38 1
  38   22   23 ar
  39   22   26 1
  40   23   24 ar
  41   23   39 1
  42   24   25 ar
  43   24   40 1
  44   25   41 1

#	End of record

