#	Name: ASD01880795
#	Creating user name:	WinNT
#	Creation time:	15. 06. 2019 19:41

#	Modifying user name:	WinNT
#	Modification time:	15. 06. 2019 19:41

#	Program:	/corina/corina34_cracker 3.40 0067  02.08.2006

@<TRIPOS>MOLECULE
ASD01880795
  47   49    0    0    0
SMALL
NO_CHARGES


@<TRIPOS>ATOM
   1 N1            -0.0158     1.3137     0.0093 N.ar    
   2 C2             0.0021    -0.0041     0.0020 C.ar    
   3 N3             1.1320    -0.6824    -0.0120 N.ar    
   4 C4             2.2982    -0.0569    -0.0197 C.ar    
   5 C5             2.3199     1.3289    -0.0130 C.ar    
   6 C6             1.1113     2.0071     0.0022 C.ar    
   7 C7             3.6263     2.0802    -0.0209 C.3     
   8 O8             4.0271     2.3244    -1.3706 O.3     
   9 C9             1.0811     3.5138     0.0101 C.3     
  10 C10            5.1918     2.9960    -1.5555 C.ar    
  11 C11            5.6407     3.2673    -2.8444 C.ar    
  12 C12            6.8188     3.9471    -3.0300 C.ar    
  13 C13            7.5728     4.3700    -1.9303 C.ar    
  14 C14            7.1172     4.0953    -0.6379 C.ar    
  15 C15            5.9322     3.4172    -0.4574 C.ar    
  16 C16            7.5715     4.3926    -4.2590 C.3     
  17 N17            8.7744     5.0801    -3.7758 N.am    
  18 C18            8.7712     5.0647    -2.4319 C.2     
  19 O19            9.6344     5.5549    -1.7298 O.2     
  20 C20           -1.3043    -0.7553     0.0105 C.3     
  21 C21            3.5851    -0.8408    -0.0352 C.3     
  22 C22            7.9193     4.5443     0.5563 C.3     
  23 C23            9.4498     7.1437    -4.9012 C.3     
  24 C24            9.8090     5.6834    -4.6195 C.3     
  25 H25            3.5023     3.0302     0.4989 H       
  26 H26            4.3895     1.4872     0.4831 H       
  27 H27            1.0639     3.8822    -1.0156 H       
  28 H28            0.1891     3.8566     0.5344 H       
  29 H29            1.9686     3.8923     0.5173 H       
  30 H30            5.0632     2.9431    -3.6975 H       
  31 H31            5.5805     3.2056     0.5416 H       
  32 H32            7.8504     3.5281    -4.8614 H       
  33 H33            6.9590     5.0771    -4.8459 H       
  34 H34           -1.6291    -0.9309    -1.0151 H       
  35 H35           -1.1707    -1.7107     0.5179 H       
  36 H36           -2.0580    -0.1677     0.5347 H       
  37 H37            3.8860    -1.0250    -1.0666 H       
  38 H38            4.3631    -0.2722     0.4741 H       
  39 H39            3.4371    -1.7923     0.4755 H       
  40 H40            7.6007     5.5435     0.8531 H       
  41 H41            7.7594     3.8515     1.3825 H       
  42 H42            8.9778     4.5625     0.2970 H       
  43 H43           10.2196     7.5927    -5.5289 H       
  44 H44            8.4897     7.1891    -5.4152 H       
  45 H45            9.3843     7.6898    -3.9601 H       
  46 H46           10.7691     5.6380    -4.1055 H       
  47 H47            9.8745     5.1374    -5.5606 H       
@<TRIPOS>BOND
   1    1    2 ar
   2    1    6 ar
   3    2    3 ar
   4    2   20 1
   5    3    4 ar
   6    4    5 ar
   7    4   21 1
   8    5    6 ar
   9    5    7 1
  10    6    9 1
  11    7    8 1
  12    7   25 1
  13    7   26 1
  14    8   10 1
  15    9   27 1
  16    9   28 1
  17    9   29 1
  18   10   11 ar
  19   10   15 ar
  20   11   12 ar
  21   11   30 1
  22   12   13 ar
  23   12   16 1
  24   13   14 ar
  25   13   18 1
  26   14   15 ar
  27   14   22 1
  28   15   31 1
  29   16   17 1
  30   16   32 1
  31   16   33 1
  32   17   18 am
  33   17   24 1
  34   18   19 2
  35   20   34 1
  36   20   35 1
  37   20   36 1
  38   21   37 1
  39   21   38 1
  40   21   39 1
  41   22   40 1
  42   22   41 1
  43   22   42 1
  44   23   24 1
  45   23   43 1
  46   23   44 1
  47   23   45 1
  48   24   46 1
  49   24   47 1

#	End of record

