#	Name: ASD01811074
#	Creating user name:	WinNT
#	Creation time:	15. 06. 2019 19:26

#	Modifying user name:	WinNT
#	Modification time:	15. 06. 2019 19:26

#	Program:	/corina/corina34_cracker 3.40 0067  02.08.2006

@<TRIPOS>MOLECULE
ASD01811074
  43   46    0    0    0
SMALL
NO_CHARGES


@<TRIPOS>ATOM
   1 C1            -0.0170     1.4014     0.0097 C.ar    
   2 C2             0.0021    -0.0041     0.0020 C.ar    
   3 N3            -1.1792    -0.7088     0.0095 N.pl3   
   4 C4            -2.3808    -0.1162     0.0242 C.2     
   5 C5            -2.5258     1.2558     0.0329 C.2     
   6 C6            -1.3163     2.0960     0.0320 C.2     
   7 C7            -1.1209    -2.1726     0.0006 C.3     
   8 C8            -1.0870    -2.6826     1.4182 C.ar    
   9 O9            -1.3870     3.3124     0.0395 O.2     
  10 C10           -3.8624     1.8674     0.0490 C.2     
  11 O11           -4.8531     1.1631     0.0548 O.2     
  12 O12           -3.9895     3.2094     0.0575 O.3     
  13 C13            1.1862     2.1105     0.0021 C.ar    
  14 C14            2.3651     1.3876    -0.0131 C.ar    
  15 C15            2.3116     0.0023    -0.0200 C.ar    
  16 N16            1.1653    -0.6442    -0.0130 N.ar    
  17 C17           -2.2688    -2.9639     2.0787 C.ar    
  18 C18           -2.2409    -3.4320     3.3780 C.ar    
  19 C19           -1.0249    -3.6199     4.0206 C.ar    
  20 C20            0.1599    -3.3366     3.3549 C.ar    
  21 C21            0.1259    -2.8738     2.0540 C.ar    
  22 N22           -0.9934    -4.0945     5.3398 N.pl3   
  23 C23            0.1265    -4.3268     6.0959 C.2     
  24 C24           -0.2973    -4.7732     7.2935 C.2     
  25 N25           -1.6378    -4.8142     7.2748 N.2     
  26 C26           -2.0668    -4.4054     6.1120 C.2     
  27 C27            0.5826    -5.1604     8.4541 C.3     
  28 H28           -3.2666    -0.7341     0.0289 H       
  29 H29           -2.0007    -2.5682    -0.5070 H       
  30 H30           -0.2222    -2.4972    -0.5239 H       
  31 H31           -4.8886     3.5652     0.0680 H       
  32 H32            1.1957     3.1905     0.0074 H       
  33 H33            3.3175     1.8969    -0.0198 H       
  34 H34            3.2334    -0.5602    -0.0321 H       
  35 H35           -3.2146    -2.8172     1.5784 H       
  36 H36           -3.1643    -3.6512     3.8935 H       
  37 H37            1.1075    -3.4815     3.8525 H       
  38 H38            1.0474    -2.6536     1.5355 H       
  39 H39            1.1517    -4.1803     5.7895 H       
  40 H40           -3.1016    -4.3328     5.8116 H       
  41 H41            0.7609    -4.2875     9.0820 H       
  42 H42            0.0898    -5.9356     9.0409 H       
  43 H43            1.5336    -5.5384     8.0787 H       
@<TRIPOS>BOND
   1    1    2 ar
   2    1   13 ar
   3    1    6 1
   4    2    3 1
   5    2   16 ar
   6    3    4 1
   7    3    7 1
   8    4    5 2
   9    4   28 1
  10    5    6 1
  11    5   10 1
  12    6    9 2
  13    7    8 1
  14    7   29 1
  15    7   30 1
  16    8   17 ar
  17    8   21 ar
  18   10   11 2
  19   10   12 1
  20   12   31 1
  21   13   14 ar
  22   13   32 1
  23   14   15 ar
  24   14   33 1
  25   15   16 ar
  26   15   34 1
  27   17   18 ar
  28   17   35 1
  29   18   19 ar
  30   18   36 1
  31   19   20 ar
  32   19   22 1
  33   20   21 ar
  34   20   37 1
  35   21   38 1
  36   22   23 1
  37   22   26 1
  38   23   24 2
  39   23   39 1
  40   24   25 1
  41   24   27 1
  42   25   26 2
  43   26   40 1
  44   27   41 1
  45   27   42 1
  46   27   43 1

#	End of record

