#	Name: ASD01881258
#	Creating user name:	WinNT
#	Creation time:	15. 06. 2019 19:42

#	Modifying user name:	WinNT
#	Modification time:	15. 06. 2019 19:42

#	Program:	/corina/corina34_cracker 3.40 0067  02.08.2006

@<TRIPOS>MOLECULE
ASD01881258
  64   66    0    0    0
SMALL
NO_CHARGES


@<TRIPOS>ATOM
   1 C1            -0.0162     1.3398     0.0094 C.2     
   2 N2             0.0021    -0.0041     0.0020 N.am    
   3 C3             1.3976    -0.4572    -0.0137 C.3     
   4 C4             2.2455     0.7903    -0.0151 C.ar    
   5 C5             3.6017     1.0053    -0.0273 C.ar    
   6 C6             4.0981     2.3048    -0.0255 C.ar    
   7 C7             3.2227     3.3847    -0.0109 C.ar    
   8 C8             1.8621     3.1749     0.0014 C.ar    
   9 C9             1.3579     1.8709    -0.0009 C.ar    
  10 O10           -1.0236     2.0205     0.0181 O.2     
  11 C11           -1.1772    -0.8733     0.0093 C.3     
  12 C12           -1.6020    -1.1687    -1.4305 C.3     
  13 O13           -0.5796    -1.9240    -2.0834 O.3     
  14 C14           -0.8784    -2.2546    -3.4411 C.3     
  15 F15           -1.0580    -1.0794    -4.1785 F       
  16 F16            0.1799    -2.9898    -3.9858 F       
  17 F17           -2.0497    -3.0183    -3.4882 F       
  18 O18            5.4382     2.5186    -0.0375 O.3     
  19 C19            5.8783     3.8781    -0.0348 C.3     
  20 C20            8.0729     3.9434    -1.2453 C.ar    
  21 C21            7.3847     3.9185    -0.0494 C.ar    
  22 C22            8.1052     3.9318     1.1479 C.ar    
  23 C23            9.5009     3.9699     1.0783 C.ar    
  24 C24           10.1089     3.9929    -0.1598 C.ar    
  25 N25            9.3914     3.9792    -1.2670 N.ar    
  26 C26            7.4080     3.9065     2.4573 C.ar    
  27 C27            7.7875     2.9881     3.4341 C.ar    
  28 C28            7.1354     2.9690     4.6503 C.ar    
  29 C29            6.1065     3.8590     4.9003 C.ar    
  30 C30            5.7252     4.7725     3.9341 C.ar    
  31 C31            6.3748     4.8049     2.7168 C.ar    
  32 C32           11.6127     4.0346    -0.2490 C.3     
  33 C33            7.3083     3.9232    -2.5437 C.3     
  34 H34            1.6083    -1.0525     0.8747 H       
  35 H35            1.5913    -1.0429    -0.9124 H       
  36 H36            4.2820     0.1666    -0.0380 H       
  37 H37            3.6115     4.3922    -0.0088 H       
  38 H38            1.1852     4.0164     0.0131 H       
  39 H39           -0.9365    -1.8079     0.5161 H       
  40 H40           -1.9925    -0.3751     0.5338 H       
  41 H41           -2.5295    -1.7411    -1.4255 H       
  42 H42           -1.7569    -0.2305    -1.9633 H       
  43 H43            5.4926     4.3866    -0.9185 H       
  44 H44            5.5101     4.3774     0.8614 H       
  45 H45           10.0944     3.9816     1.9805 H       
  46 H46            8.5903     2.2922     3.2397 H       
  47 H47            7.4288     2.2576     5.4081 H       
  48 H48            5.5986     3.8404     5.8533 H       
  49 H49            4.9207     5.4647     4.1343 H       
  50 H50            6.0798     5.5220     1.9650 H       
  51 H51           12.0034     3.0174    -0.2756 H       
  52 H52           11.9084     4.5613    -1.1563 H       
  53 H53           12.0139     4.5552     0.6206 H       
  54 H54            7.0918     4.9454    -2.8538 H       
  55 H55            7.9064     3.4299    -3.3099 H       
  56 H56            6.3736     3.3795    -2.4064 H       
  57 C57           18.1853    12.5102    12.0001 C.2     
  58 C58           18.2057    11.0034    11.9918 C.3     
  59 O59           19.2233    13.1285    11.9935 O.2     
  60 O60           17.0139    13.1655    12.0092 O.3     
  61 F61           19.5309    10.5551    11.9767 F       
  62 F62           17.5636    10.5220    13.1377 F       
  63 F63           17.5417    10.5343    10.8533 F       
  64 H64           17.0514    14.1318    12.0143 H       
@<TRIPOS>BOND
   1    1    2 am
   2    1    9 1
   3    1   10 2
   4    2    3 1
   5    2   11 1
   6    3    4 1
   7    3   34 1
   8    3   35 1
   9    4    5 ar
  10    4    9 ar
  11    5    6 ar
  12    5   36 1
  13    6    7 ar
  14    6   18 1
  15    7    8 ar
  16    7   37 1
  17    8    9 ar
  18    8   38 1
  19   11   12 1
  20   11   39 1
  21   11   40 1
  22   12   13 1
  23   12   41 1
  24   12   42 1
  25   13   14 1
  26   14   15 1
  27   14   16 1
  28   14   17 1
  29   18   19 1
  30   19   21 1
  31   19   43 1
  32   19   44 1
  33   20   21 ar
  34   20   25 ar
  35   20   33 1
  36   21   22 ar
  37   22   23 ar
  38   22   26 1
  39   23   24 ar
  40   23   45 1
  41   24   25 ar
  42   24   32 1
  43   26   27 ar
  44   26   31 ar
  45   27   28 ar
  46   27   46 1
  47   28   29 ar
  48   28   47 1
  49   29   30 ar
  50   29   48 1
  51   30   31 ar
  52   30   49 1
  53   31   50 1
  54   32   51 1
  55   32   52 1
  56   32   53 1
  57   33   54 1
  58   33   55 1
  59   33   56 1
  60   57   58 1
  61   57   59 2
  62   57   60 1
  63   58   61 1
  64   58   62 1
  65   58   63 1
  66   60   64 1

#	End of record

