#	Name: ASD03731796
#	Creating user name:	WinNT
#	Creation time:	15. 06. 2019 20:46

#	Modifying user name:	WinNT
#	Modification time:	15. 06. 2019 20:46

#	Program:	/corina/corina34_cracker 3.40 0067  02.08.2006

@<TRIPOS>MOLECULE
ASD03731796
  40   41    0    0    0
SMALL
NO_CHARGES


@<TRIPOS>ATOM
   1 C1             0.7581     1.4154    -0.4020 C.2     
   2 C2             0.5737    -0.0456    -0.3015 C.ar    
   3 C3             1.5327    -0.9110    -0.8346 C.ar    
   4 C4             1.3573    -2.2733    -0.7385 C.ar    
   5 C5             0.2278    -2.7882    -0.1126 C.ar    
   6 C6            -0.7285    -1.9305     0.4190 C.ar    
   7 C7            -0.5575    -0.5670     0.3319 C.ar    
   8 O8             1.7454     1.8673    -0.9490 O.2     
   9 N9            -0.1706     2.2485     0.1078 N.am    
  10 S10            0.0363     3.8876    -0.0048 S.o2    
  11 O11           -1.1025     4.4303     0.6494 O.2     
  12 O12            1.3462     4.1109     0.4987 O.2     
  13 C13           -0.0285     4.2307    -1.7849 C.3     
  14 O14            0.0581    -4.1313    -0.0206 O.3     
  15 C15            0.5843    -4.7685     1.0581 C.ar    
  16 C16            1.1754    -4.0360     2.0766 C.ar    
  17 C17            1.7113    -4.6890     3.1756 C.ar    
  18 C18            1.6552    -6.0736     3.2542 C.ar    
  19 C19            1.0662    -6.8011     2.2380 C.ar    
  20 C20            0.5257    -6.1523     1.1442 C.ar    
  21 O21            2.2916    -3.9740     4.1750 O.3     
  22 C22            2.8229    -4.7126     5.2769 C.3     
  23 C23            3.4306    -3.7447     6.2941 C.3     
  24 H24            2.4101    -0.5118    -1.3216 H       
  25 H25            2.0981    -2.9428    -1.1502 H       
  26 H26           -1.6047    -2.3342     0.9045 H       
  27 H27           -1.2987     0.0987     0.7491 H       
  28 H28           -0.9602     1.8879     0.5407 H       
  29 H29           -0.9934     3.9142    -2.1811 H       
  30 H30            0.1005     5.2998    -1.9538 H       
  31 H31            0.7683     3.6844    -2.2895 H       
  32 H32            1.2184    -2.9587     2.0135 H       
  33 H33            2.0726    -6.5827     4.1103 H       
  34 H34            1.0242    -7.8785     2.3008 H       
  35 H35            0.0615    -6.7229     0.3534 H       
  36 H36            2.0243    -5.2834     5.7507 H       
  37 H37            3.5940    -5.3948     4.9190 H       
  38 H38            4.2292    -3.1739     5.8204 H       
  39 H39            2.6595    -3.0625     6.6521 H       
  40 H40            3.8359    -4.3080     7.1346 H       
@<TRIPOS>BOND
   1    1    2 1
   2    1    8 2
   3    1    9 am
   4    2    3 ar
   5    2    7 ar
   6    3    4 ar
   7    3   24 1
   8    4    5 ar
   9    4   25 1
  10    5    6 ar
  11    5   14 1
  12    6    7 ar
  13    6   26 1
  14    7   27 1
  15    9   10 am
  16    9   28 1
  17   10   11 2
  18   10   12 2
  19   10   13 1
  20   13   29 1
  21   13   30 1
  22   13   31 1
  23   14   15 1
  24   15   16 ar
  25   15   20 ar
  26   16   17 ar
  27   16   32 1
  28   17   18 ar
  29   17   21 1
  30   18   19 ar
  31   18   33 1
  32   19   20 ar
  33   19   34 1
  34   20   35 1
  35   21   22 1
  36   22   23 1
  37   22   36 1
  38   22   37 1
  39   23   38 1
  40   23   39 1
  41   23   40 1

#	End of record

