#	Name: ASD06610053
#	Creating user name:	WinNT
#	Creation time:	15. 06. 2019 21:07

#	Modifying user name:	WinNT
#	Modification time:	15. 06. 2019 21:07

#	Program:	/corina/corina34_cracker 3.40 0067  02.08.2006

@<TRIPOS>MOLECULE
ASD06610053
 201  200    0    0    0
SMALL
NO_CHARGES


@<TRIPOS>ATOM
   1 C1            -0.0144     1.2086     0.0087 C.2     
   2 O2             0.0021    -0.0041     0.0020 O.2     
   3 N3             2.4066     1.0431    -0.0153 N.am    
   4 C4             1.2803     1.9798     0.0005 C.3     
   5 C5             1.3375     2.8671    -1.2446 C.3     
   6 O6             1.1451     2.0642    -2.4110 O.3     
   7 C7            -3.5426     1.9694    -0.5709 C.2     
   8 O8            -3.2948     3.0926    -0.9556 O.2     
   9 N9            -1.1906     1.8666     0.0178 N.am    
  10 C10           -2.4492     1.1169     0.0197 C.3     
  11 C11           -2.8163     0.7401     1.4565 C.3     
  12 C12           -1.7689    -0.2260     2.0138 C.3     
  13 C13           -2.1359    -0.6028     3.4505 C.3     
  14 N14           -1.1331    -1.5279     3.9841 N.pl3   
  15 C15           -1.2536    -2.0071     5.2671 C.2     
  16 N16           -0.3613    -2.8301     5.7418 N.2     
  17 N17           -2.3153    -1.6183     6.0492 N.pl3   
  18 C18           -7.1934     1.8552    -0.7166 C.2     
  19 O19           -7.2513     0.9284     0.0635 O.2     
  20 N20           -4.7957     1.4837    -0.6717 N.am    
  21 C21           -5.8586     2.3124    -1.2459 C.3     
  22 C22           -5.8417     2.1796    -2.7700 C.3     
  23 C23           -4.5360     2.7591    -3.3180 C.3     
  24 C24           -4.5193     2.6283    -4.8192 C.2     
  25 O25           -5.4558     2.1234    -5.3921 O.2     
  26 O26           -3.4642     3.0726    -5.5200 O.3     
  27 C27          -10.7041     2.4068    -1.5736 C.2     
  28 O28          -10.4202     2.9881    -2.5995 O.2     
  29 N29           -8.3230     2.4763    -1.1101 N.am    
  30 C30           -9.6207     2.0318    -0.5955 C.3     
  31 C31           -9.8934     2.7057     0.7507 C.3     
  32 C32           -8.8653     2.2276     1.7780 C.3     
  33 C33           -9.1381     2.9014     3.1243 C.3     
  34 C34           -8.1100     2.4233     4.1515 C.3     
  35 N35           -8.3719     3.0703     5.4441 N.3     
  36 C36          -14.3550     2.5850    -1.5307 C.2     
  37 O37          -14.4062     2.3884    -0.3350 O.2     
  38 N38          -11.9884     2.0962    -1.3083 N.am    
  39 C39          -13.0416     2.4607    -2.2592 C.3     
  40 C40          -13.1552     1.3780    -3.3342 C.3     
  41 C41          -11.8649     1.3373    -4.1554 C.3     
  42 C42          -11.9784     0.2546    -5.2305 C.3     
  43 N43          -10.7429     0.2157    -6.0168 N.pl3   
  44 C44          -10.6119    -0.6850    -7.0471 C.2     
  45 N45           -9.5127    -0.7196    -7.7467 N.2     
  46 N46          -11.6404    -1.5492    -7.3396 N.pl3   
  47 C47          -17.8831     2.7975    -2.4639 C.2     
  48 O48          -17.6476     2.5513    -3.6279 O.2     
  49 N49          -15.4727     2.9146    -2.2080 N.am    
  50 C50          -16.7494     3.0354    -1.4998 C.3     
  51 C51          -16.8719     4.4398    -0.9051 C.3     
  52 C52          -15.7956     4.6363     0.1644 C.3     
  53 C53          -15.9181     6.0407     0.7591 C.3     
  54 N54          -14.8876     6.2289     1.7832 N.pl3   
  55 C55          -14.8012     7.4222     2.4604 C.2     
  56 N56          -15.6362     8.3862     2.1912 N.2     
  57 N57          -13.8341     7.5989     3.4214 N.pl3   
  58 C58          -21.5012     3.3190    -2.4668 C.2     
  59 O59          -21.4682     3.9438    -1.4278 O.2     
  60 N60          -19.1585     2.8584    -2.0326 N.am    
  61 C61          -20.2605     2.6272    -2.9698 C.3     
  62 C62          -20.5255     1.1247    -3.0847 C.3     
  63 O63          -20.9868     0.6249    -1.8280 O.3     
  64 C64          -25.0733     3.2269    -3.2380 C.2     
  65 O65          -24.9474     2.2682    -3.9701 O.2     
  66 N66          -22.6475     3.2436    -3.1716 N.am    
  67 C67          -23.8537     3.9162    -2.6826 C.3     
  68 C68          -23.8425     5.3772    -3.1367 C.3     
  69 C69          -27.7987     3.5565    -4.8291 C.2     
  70 O70          -27.1002     4.4202    -5.3045 O.2     
  71 N71          -26.3040     3.6758    -2.9210 N.am    
  72 C72          -27.4896     3.0057    -3.4609 C.3     
  73 C73          -28.6806     3.2496    -2.5319 C.3     
  74 C74          -28.4224     2.5920    -1.2008 C.2     
  75 O75          -27.3915     1.9899    -1.0143 O.2     
  76 O76          -29.3376     2.6750    -0.2224 O.3     
  77 O77          -28.8499     3.0877    -5.5196 O.3     
  78 C78            3.6058     1.4228     0.4686 C.2     
  79 O79            3.7525     2.5401     0.9171 O.2     
  80 C80           21.6351    -1.6585     4.5475 C.3     
  81 C81           20.4589    -0.6802     4.5640 C.3     
  82 C82           19.2250    -1.3560     3.9625 C.3     
  83 C83           18.0488    -0.3777     3.9790 C.3     
  84 C84           16.8149    -1.0534     3.3775 C.3     
  85 C85           15.6387    -0.0751     3.3940 C.3     
  86 C86           14.4048    -0.7509     2.7924 C.3     
  87 C87           13.2286     0.2274     2.8089 C.3     
  88 C88           11.9947    -0.4484     2.2074 C.3     
  89 C89           10.8184     0.5299     2.2239 C.3     
  90 C90            9.5846    -0.1458     1.6224 C.3     
  91 C91            8.4083     0.8325     1.6389 C.3     
  92 C92            7.1745     0.1567     1.0374 C.3     
  93 C93            5.9982     1.1350     1.0539 C.3     
  94 C94            4.7644     0.4592     0.4523 C.3     
  95 H95            2.2893     0.1495    -0.3740 H       
  96 H96            1.3381     2.6024     0.8933 H       
  97 H97            0.5528     3.6216    -1.1894 H       
  98 H98            2.3097     3.3572    -1.2972 H       
  99 H99            1.1692     2.5622    -3.2396 H       
 100 H100          -1.2037     2.8365     0.0232 H       
 101 H101          -2.3335     0.2109    -0.5752 H       
 102 H102          -2.8450     1.6393     2.0719 H       
 103 H103          -3.7951     0.2607     1.4676 H       
 104 H104          -1.7401    -1.1252     1.3984 H       
 105 H105          -0.7900     0.2534     2.0026 H       
 106 H106          -2.1647     0.2964     4.0659 H       
 107 H107          -3.1148    -1.0822     3.4616 H       
 108 H108          -0.3840    -1.8022     3.4323 H       
 109 H109          -0.4464    -3.1683     6.6470 H       
 110 H110          -2.9793    -1.0058     5.6959 H       
 111 H111          -2.4003    -1.9564     6.9544 H       
 112 H112          -4.9939     0.5854    -0.3641 H       
 113 H113          -5.6959     3.3544    -0.9701 H       
 114 H114          -5.9154     1.1272    -3.0439 H       
 115 H115          -6.6863     2.7247    -3.1916 H       
 116 H116          -4.4623     3.8115    -3.0442 H       
 117 H117          -3.6914     2.2140    -2.8964 H       
 118 H118          -3.4992     2.9669    -6.4805 H       
 119 H119          -8.2768     3.2176    -1.7340 H       
 120 H120          -9.6082     0.9498    -0.4643 H       
 121 H121          -9.8181     3.7872     0.6376 H       
 122 H122         -10.8955     2.4450     1.0911 H       
 123 H123          -8.9407     1.1461     1.8912 H       
 124 H124          -7.8632     2.4883     1.4376 H       
 125 H125          -9.0627     3.9829     3.0111 H       
 126 H126         -10.1402     2.6407     3.4647 H       
 127 H127          -8.1854     1.3418     4.2647 H       
 128 H128          -7.1079     2.6840     3.8111 H       
 129 H129          -7.7056     2.7706     6.1400 H       
 130 H130          -8.3715     4.0751     5.3521 H       
 131 H131         -12.2155     1.6313    -0.4878 H       
 132 H132         -12.7944     3.4133    -2.7276 H       
 133 H133         -13.3143     0.4098    -2.8595 H       
 134 H134         -13.9962     1.6038    -3.9899 H       
 135 H135         -11.7057     2.3055    -4.6302 H       
 136 H136         -11.0239     1.1116    -3.4998 H       
 137 H137         -12.1376    -0.7135    -4.7557 H       
 138 H138         -12.8194     0.4804    -5.8861 H       
 139 H139         -10.0173     0.8255    -5.8104 H       
 140 H140          -9.4202    -1.3552    -8.4737 H       
 141 H141         -12.4584    -1.5235    -6.8190 H       
 142 H142         -11.5479    -2.1847    -8.0666 H       
 143 H143         -15.4317     3.0718    -3.1643 H       
 144 H144         -16.7922     2.2968    -0.6993 H       
 145 H145         -16.7403     5.1809    -1.6935 H       
 146 H146         -17.8574     4.5591    -0.4551 H       
 147 H147         -15.9272     3.8952     0.9528 H       
 148 H148         -14.8101     4.5170    -0.2856 H       
 149 H149         -15.7865     6.7818    -0.0292 H       
 150 H150         -16.9036     6.1600     1.2092 H       
 151 H151         -14.2662     5.5115     1.9836 H       
 152 H152         -15.5752     9.2282     2.6689 H       
 153 H153         -13.2127     6.8815     3.6218 H       
 154 H154         -13.7731     8.4408     3.8992 H       
 155 H155         -19.3468     3.0553    -1.1016 H       
 156 H156         -19.9942     3.0251    -3.9490 H       
 157 H157         -21.2840     0.9468    -3.8470 H       
 158 H158         -19.6039     0.6134    -3.3628 H       
 159 H159         -21.1752    -0.3236    -1.8271 H       
 160 H160         -22.6739     2.7439    -4.0026 H       
 161 H161         -23.8769     3.8743    -1.5937 H       
 162 H162         -24.7399     5.8776    -2.7729 H       
 163 H163         -22.9603     5.8757    -2.7351 H       
 164 H164         -23.8193     5.4190    -4.2257 H       
 165 H165         -26.4046     4.4425    -2.3355 H       
 166 H166         -27.2998     1.9349    -3.5347 H       
 167 H167         -28.8152     4.3216    -2.3875 H       
 168 H168         -29.5813     2.8271    -2.9773 H       
 169 H169         -29.1273     2.2372     0.6138 H       
 170 H170         -29.0081     3.4717    -6.3929 H       
 171 H171          21.3818    -2.5412     5.1347 H       
 172 H172          21.8474    -1.9542     3.5201 H       
 173 H173          22.5141    -1.1771     4.9760 H       
 174 H174          20.2466    -0.3845     5.5914 H       
 175 H175          20.7122     0.2025     3.9769 H       
 176 H176          19.4373    -1.6516     2.9351 H       
 177 H177          18.9717    -2.2387     4.5497 H       
 178 H178          17.8365    -0.0820     5.0064 H       
 179 H179          18.3021     0.5051     3.3918 H       
 180 H180          17.0272    -1.3491     2.3500 H       
 181 H181          16.5616    -1.9361     3.9646 H       
 182 H182          15.4264     0.2206     4.4214 H       
 183 H183          15.8920     0.8076     2.8068 H       
 184 H184          14.6171    -1.0466     1.7650 H       
 185 H185          14.1515    -1.6336     3.3796 H       
 186 H186          13.0163     0.5231     3.8364 H       
 187 H187          13.4819     1.1101     2.2218 H       
 188 H188          12.2070    -0.7440     1.1800 H       
 189 H189          11.7414    -1.3311     2.7946 H       
 190 H190          10.6062     0.8256     3.2513 H       
 191 H191          11.0718     1.4127     1.6367 H       
 192 H192           9.7969    -0.4415     0.5950 H       
 193 H193           9.3313    -1.0285     2.2095 H       
 194 H194           8.1961     1.1282     2.6663 H       
 195 H195           8.6617     1.7152     1.0517 H       
 196 H196           7.3868    -0.1390     0.0099 H       
 197 H197           6.9211    -0.7260     1.6245 H       
 198 H198           5.7859     1.4307     2.0813 H       
 199 H199           6.2516     2.0177     0.4667 H       
 200 H200           4.5110    -0.4235     1.0395 H       
 201 H201           4.9766     0.1636    -0.5751 H       
@<TRIPOS>BOND
   1    1    2 2
   2    1    4 1
   3    1    9 am
   4    3   78 am
   5    3    4 1
   6    3   95 1
   7    4    5 1
   8    4   96 1
   9    5    6 1
  10    5   97 1
  11    5   98 1
  12    6   99 1
  13    7    8 2
  14    7   10 1
  15    7   20 am
  16    9   10 1
  17    9  100 1
  18   10   11 1
  19   10  101 1
  20   11   12 1
  21   11  102 1
  22   11  103 1
  23   12   13 1
  24   12  104 1
  25   12  105 1
  26   13   14 1
  27   13  106 1
  28   13  107 1
  29   14   15 1
  30   14  108 1
  31   15   16 2
  32   15   17 1
  33   16  109 1
  34   17  110 1
  35   17  111 1
  36   18   19 2
  37   18   21 1
  38   18   29 am
  39   20   21 1
  40   20  112 1
  41   21   22 1
  42   21  113 1
  43   22   23 1
  44   22  114 1
  45   22  115 1
  46   23   24 1
  47   23  116 1
  48   23  117 1
  49   24   25 2
  50   24   26 1
  51   26  118 1
  52   27   28 2
  53   27   30 1
  54   27   38 am
  55   29   30 1
  56   29  119 1
  57   30   31 1
  58   30  120 1
  59   31   32 1
  60   31  121 1
  61   31  122 1
  62   32   33 1
  63   32  123 1
  64   32  124 1
  65   33   34 1
  66   33  125 1
  67   33  126 1
  68   34   35 1
  69   34  127 1
  70   34  128 1
  71   35  129 1
  72   35  130 1
  73   36   37 2
  74   36   39 1
  75   36   49 am
  76   38   39 1
  77   38  131 1
  78   39   40 1
  79   39  132 1
  80   40   41 1
  81   40  133 1
  82   40  134 1
  83   41   42 1
  84   41  135 1
  85   41  136 1
  86   42   43 1
  87   42  137 1
  88   42  138 1
  89   43   44 1
  90   43  139 1
  91   44   45 2
  92   44   46 1
  93   45  140 1
  94   46  141 1
  95   46  142 1
  96   47   48 2
  97   47   50 1
  98   47   60 am
  99   49   50 1
 100   49  143 1
 101   50   51 1
 102   50  144 1
 103   51   52 1
 104   51  145 1
 105   51  146 1
 106   52   53 1
 107   52  147 1
 108   52  148 1
 109   53   54 1
 110   53  149 1
 111   53  150 1
 112   54   55 1
 113   54  151 1
 114   55   56 2
 115   55   57 1
 116   56  152 1
 117   57  153 1
 118   57  154 1
 119   58   59 2
 120   58   61 1
 121   58   66 am
 122   60   61 1
 123   60  155 1
 124   61   62 1
 125   61  156 1
 126   62   63 1
 127   62  157 1
 128   62  158 1
 129   63  159 1
 130   64   65 2
 131   64   67 1
 132   64   71 am
 133   66   67 1
 134   66  160 1
 135   67   68 1
 136   67  161 1
 137   68  162 1
 138   68  163 1
 139   68  164 1
 140   69   70 2
 141   69   72 1
 142   69   77 1
 143   71   72 1
 144   71  165 1
 145   72   73 1
 146   72  166 1
 147   73   74 1
 148   73  167 1
 149   73  168 1
 150   74   75 2
 151   74   76 1
 152   76  169 1
 153   77  170 1
 154   78   79 2
 155   78   94 1
 156   80   81 1
 157   80  171 1
 158   80  172 1
 159   80  173 1
 160   81   82 1
 161   81  174 1
 162   81  175 1
 163   82   83 1
 164   82  176 1
 165   82  177 1
 166   83   84 1
 167   83  178 1
 168   83  179 1
 169   84   85 1
 170   84  180 1
 171   84  181 1
 172   85   86 1
 173   85  182 1
 174   85  183 1
 175   86   87 1
 176   86  184 1
 177   86  185 1
 178   87   88 1
 179   87  186 1
 180   87  187 1
 181   88   89 1
 182   88  188 1
 183   88  189 1
 184   89   90 1
 185   89  190 1
 186   89  191 1
 187   90   91 1
 188   90  192 1
 189   90  193 1
 190   91   92 1
 191   91  194 1
 192   91  195 1
 193   92   93 1
 194   92  196 1
 195   92  197 1
 196   93   94 1
 197   93  198 1
 198   93  199 1
 199   94  200 1
 200   94  201 1

#	End of record

