#	Name: ASD02038649
#	Creating user name:	WinNT
#	Creation time:	15. 06. 2019 20:17

#	Modifying user name:	WinNT
#	Modification time:	15. 06. 2019 20:17

#	Program:	/corina/corina34_cracker 3.40 0067  02.08.2006

@<TRIPOS>MOLECULE
ASD02038649
  57   60    0    0    0
SMALL
NO_CHARGES


@<TRIPOS>ATOM
   1 C1            -0.0168     1.3841     0.0097 C.ar    
   2 C2             0.0021    -0.0041     0.0020 C.ar    
   3 O3            -1.1643    -0.7028     0.0090 O.3     
   4 C4            -1.0666    -2.1284     0.0004 C.3     
   5 C5            -2.4708    -2.7360     0.0100 C.3     
   6 C6            -2.3672    -4.2580     0.1266 C.3     
   7 N7            -3.7154    -4.8413     0.1358 N.3     
   8 C8            -3.6573    -6.3030     0.0079 C.3     
   9 C9            -5.0758    -6.8616    -0.1251 C.3     
  10 C10            1.1676     2.0859     0.0021 C.ar    
  11 C11            2.3881     1.4234    -0.0131 C.ar    
  12 C12            2.4014     0.0299    -0.0207 C.ar    
  13 C13            1.2163    -0.6752    -0.0132 C.ar    
  14 O14           -3.1452    -2.3960    -1.2031 O.3     
  15 C15           -4.4530    -4.4426     1.3414 C.3     
  16 C16           -5.8910    -6.4707     1.1108 C.3     
  17 C17           -5.8954    -4.9457     1.2482 C.3     
  18 C18           -7.3275    -6.9742     0.9560 C.3     
  19 C19           -8.1589    -6.4844     2.1135 C.ar    
  20 O20           -5.3022    -7.0534     2.2751 O.3     
  21 C21           -8.8195    -5.2732     2.0264 C.ar    
  22 C22           -8.2656    -7.2488     3.2603 C.ar    
  23 C23           -9.0282    -6.7995     4.3221 C.ar    
  24 C24           -9.6838    -5.5855     4.2372 C.ar    
  25 C25           -9.5821    -4.8238     3.0881 C.ar    
  26 N26            3.4377     2.3459    -0.0177 N.am    
  27 C27            2.9982     3.6156    -0.0064 C.2     
  28 C28            1.4853     3.5636     0.0075 C.3     
  29 O29            3.6846     4.6156    -0.0075 O.2     
  30 H30           -0.9587     1.9123     0.0170 H       
  31 H31           -0.5373    -2.4510    -0.8962 H       
  32 H32           -0.5210    -2.4605     0.8836 H       
  33 H33           -3.0306    -2.3438     0.8591 H       
  34 H34           -1.8074    -4.6502    -0.7225 H       
  35 H35           -1.8528    -4.5173     1.0519 H       
  36 H36           -3.0784    -6.5674    -0.8770 H       
  37 H37           -3.1817    -6.7263     0.8927 H       
  38 H38           -5.5471    -6.4493    -1.0172 H       
  39 H39           -5.0333    -7.9479    -0.2043 H       
  40 H40            3.3427    -0.4994    -0.0329 H       
  41 H41            1.2334    -1.7551    -0.0188 H       
  42 H42           -2.7022    -2.7138    -2.0018 H       
  43 H43           -3.9737    -4.8747     2.2199 H       
  44 H44           -4.4521    -3.3559     1.4250 H       
  45 H45           -6.4383    -4.6631     2.1501 H       
  46 H46           -6.3795    -4.5032     0.3776 H       
  47 H47           -7.7460    -6.5973     0.0228 H       
  48 H48           -7.3309    -8.0641     0.9418 H       
  49 H49           -5.7682    -6.8468     3.0969 H       
  50 H50           -8.7394    -4.6778     1.1288 H       
  51 H51           -7.7533    -8.1973     3.3266 H       
  52 H52           -9.1121    -7.3971     5.2177 H       
  53 H53          -10.2800    -5.2346     5.0666 H       
  54 H54          -10.0943    -3.8753     3.0218 H       
  55 H55            4.3755     2.0982    -0.0274 H       
  56 H56            1.0785     4.0448    -0.8819 H       
  57 H57            1.0954     4.0347     0.9098 H       
@<TRIPOS>BOND
   1    1    2 ar
   2    1   10 ar
   3    1   30 1
   4    2    3 1
   5    2   13 ar
   6    3    4 1
   7    4    5 1
   8    4   31 1
   9    4   32 1
  10    5    6 1
  11    5   14 1
  12    5   33 1
  13    6    7 1
  14    6   34 1
  15    6   35 1
  16    7    8 1
  17    7   15 1
  18    8    9 1
  19    8   36 1
  20    8   37 1
  21    9   16 1
  22    9   38 1
  23    9   39 1
  24   10   11 ar
  25   10   28 1
  26   11   12 ar
  27   11   26 1
  28   12   13 ar
  29   12   40 1
  30   13   41 1
  31   14   42 1
  32   15   17 1
  33   15   43 1
  34   15   44 1
  35   16   17 1
  36   16   18 1
  37   16   20 1
  38   17   45 1
  39   17   46 1
  40   18   19 1
  41   18   47 1
  42   18   48 1
  43   19   21 ar
  44   19   22 ar
  45   20   49 1
  46   21   25 ar
  47   21   50 1
  48   22   23 ar
  49   22   51 1
  50   23   24 ar
  51   23   52 1
  52   24   25 ar
  53   24   53 1
  54   25   54 1
  55   26   27 am
  56   26   55 1
  57   27   28 1
  58   27   29 2
  59   28   56 1
  60   28   57 1

#	End of record

