#	Name: ASD01122034
#	Creating user name:	WinNT
#	Creation time:	15. 06. 2019 18:59

#	Modifying user name:	WinNT
#	Modification time:	15. 06. 2019 18:59

#	Program:	/corina/corina34_cracker 3.40 0067  02.08.2006

@<TRIPOS>MOLECULE
ASD01122034
  41   42    0    0    0
SMALL
NO_CHARGES


@<TRIPOS>ATOM
   1 N1            -0.0168     1.3061    -0.0506 N.ar    
   2 C2             0.0025    -0.0137    -0.0532 C.ar    
   3 N3             1.1231    -0.7067    -0.0537 N.ar    
   4 C4             2.2995    -0.0934    -0.0516 C.ar    
   5 C5             2.3377     1.3166    -0.0489 C.ar    
   6 C6             1.1088     2.0122    -0.0484 C.ar    
   7 N7             3.6093    -0.5108    -0.0515 N.am    
   8 C8             4.3937     0.6278    -0.0487 C.2     
   9 N9             3.6233     1.6886    -0.0472 N.2     
  10 N10            1.0777     3.3915    -0.0462 N.pl3   
  11 P11            8.3961     1.6461    -0.1286 P.3     
  12 O12            8.8066     0.8303    -1.4016 O.co2   
  13 O13            8.7639     0.8288     1.1564 O.co2   
  14 O14            9.1615     3.0130    -0.1150 O.co2   
  15 O15            4.1432    -2.3899    -1.0950 O.2     
  16 C16            4.0454    -1.7861    -0.0530 C.2     
  17 C17            4.4110    -2.4589     1.2450 C.3     
  18 O18            5.1645    -3.6421     0.9724 O.3     
  19 C19            3.1355    -2.8300     2.0041 C.3     
  20 O20            2.3310    -1.6627     2.1830 O.3     
  21 C21            3.5057    -3.4088     3.3711 C.3     
  22 O22            4.3102    -4.5762     3.1921 O.3     
  23 C23            2.2302    -3.7799     4.1302 C.3     
  24 O24            2.5695    -4.2112     5.4496 O.3     
  25 C25            5.8625     0.6461    -0.0476 C.2     
  26 C26            6.5998     1.9557    -0.1584 C.3     
  27 O27            6.4818    -0.3929     0.0425 O.2     
  28 H28           -0.9370    -0.5464    -0.0546 H       
  29 H29            1.9066     3.8954    -0.0449 H       
  30 H30            0.2269     3.8574    -0.0459 H       
  31 H31            5.0095    -1.7786     1.8509 H       
  32 H32            4.6928    -4.2940     0.4361 H       
  33 H33            2.5767    -3.5725     1.4344 H       
  34 H34            2.7910    -0.9306     2.6161 H       
  35 H35            4.0645    -2.6663     3.9408 H       
  36 H36            3.8755    -5.2806     2.6923 H       
  37 H37            1.5763    -2.9098     4.1892 H       
  38 H38            1.7165    -4.5855     3.6055 H       
  39 H39            1.8076    -4.4629     5.9893 H       
  40 H40            6.3279     2.5978     0.6794 H       
  41 H41            6.3311     2.4459    -1.0941 H       
@<TRIPOS>BOND
   1    1    2 ar
   2    1    6 ar
   3    2    3 ar
   4    2   28 1
   5    3    4 ar
   6    4    5 ar
   7    4    7 1
   8    5    6 ar
   9    5    9 1
  10    6   10 1
  11    7    8 1
  12    7   16 am
  13    8    9 2
  14    8   25 1
  15   10   29 1
  16   10   30 1
  17   11   12 ar
  18   11   13 ar
  19   11   14 ar
  20   11   26 1
  21   15   16 2
  22   16   17 1
  23   17   18 1
  24   17   19 1
  25   17   31 1
  26   18   32 1
  27   19   20 1
  28   19   21 1
  29   19   33 1
  30   20   34 1
  31   21   22 1
  32   21   23 1
  33   21   35 1
  34   22   36 1
  35   23   24 1
  36   23   37 1
  37   23   38 1
  38   24   39 1
  39   25   26 1
  40   25   27 2
  41   26   40 1
  42   26   41 1

#	End of record

