#	Name: ASD01328028
#	Creating user name:	WinNT
#	Creation time:	15. 06. 2019 19:16

#	Modifying user name:	WinNT
#	Modification time:	15. 06. 2019 19:16

#	Program:	/corina/corina34_cracker 3.40 0067  02.08.2006

@<TRIPOS>MOLECULE
ASD01328028
  49   50    0    0    0
SMALL
NO_CHARGES


@<TRIPOS>ATOM
   1 C1             0.0431     1.5395    -0.0348 C.2     
   2 C2             0.0541     0.0326    -0.0204 C.3     
   3 C3             1.4997    -0.4673    -0.0550 C.3     
   4 C4             1.5108    -1.9972    -0.0404 C.3     
   5 C5             2.9564    -2.4971    -0.0750 C.3     
   6 O6             1.0847     2.1509    -0.0693 O.2     
   7 O7            -1.1239     2.2024    -0.0150 O.3     
   8 O8             2.9667    -3.9260    -0.0613 O.3     
   9 C9             4.1816    -4.5345    -0.0886 C.ar    
  10 C10            4.2646    -5.9182    -0.0773 C.ar    
  11 C11            5.5065    -6.5363    -0.1057 C.ar    
  12 C12            6.6627    -5.7670    -0.1454 C.ar    
  13 C13            6.5759    -4.3885    -0.1560 C.ar    
  14 C14            5.3395    -3.7711    -0.1335 C.ar    
  15 C15            3.0084    -6.7495    -0.0338 C.3     
  16 N16            5.5944    -7.9328    -0.0940 N.am    
  17 C17            6.7011    -8.5344     0.3855 C.2     
  18 O18            7.6514    -7.8648     0.7405 O.2     
  19 N19            6.7540    -9.8783     0.4714 N.am    
  20 C20            7.8606   -10.4799     0.9509 C.2     
  21 C21            7.9186   -11.9520     1.0450 C.ar    
  22 C22            9.0650   -12.5793     1.5419 C.ar    
  23 C23            9.1121   -13.9562     1.6270 C.ar    
  24 C24            8.0271   -14.7150     1.2213 C.ar    
  25 C25            6.8886   -14.0987     0.7281 C.ar    
  26 C26            6.8262   -12.7241     0.6433 C.ar    
  27 O27            8.8108    -9.8105     1.3059 O.2     
  28 Cl28           8.0941   -16.4462     1.3308 Cl      
  29 Cl29          10.4260   -11.6289     2.0502 Cl      
  30 H30           -0.4326    -0.3256     0.8868 H       
  31 H31           -0.4813    -0.3430    -0.8924 H       
  32 H32            1.9863    -0.1091    -0.9622 H       
  33 H33            2.0350    -0.0917     0.8170 H       
  34 H34            1.0241    -2.3554     0.8668 H       
  35 H35            0.9754    -2.3728    -0.9124 H       
  36 H36            3.4430    -2.1389    -0.9822 H       
  37 H37            3.4917    -2.1215     0.7970 H       
  38 H38           -1.0803     3.1684    -0.0254 H       
  39 H39            7.6299    -6.2470    -0.1675 H       
  40 H40            7.4757    -3.7920    -0.1865 H       
  41 H41            5.2747    -2.6931    -0.1465 H       
  42 H42            2.6766    -6.9600    -1.0505 H       
  43 H43            3.2110    -7.6872     0.4838 H       
  44 H44            2.2290    -6.2026     0.4968 H       
  45 H45            4.8589    -8.4679    -0.4310 H       
  46 H46            5.9956   -10.4127     0.1881 H       
  47 H47            9.9969   -14.4427     2.0102 H       
  48 H48            6.0461   -14.6965     0.4131 H       
  49 H49            5.9359   -12.2453     0.2630 H       
@<TRIPOS>BOND
   1    1    2 1
   2    1    6 2
   3    1    7 1
   4    2    3 1
   5    2   30 1
   6    2   31 1
   7    3    4 1
   8    3   32 1
   9    3   33 1
  10    4    5 1
  11    4   34 1
  12    4   35 1
  13    5    8 1
  14    5   36 1
  15    5   37 1
  16    7   38 1
  17    8    9 1
  18    9   10 ar
  19    9   14 ar
  20   10   11 ar
  21   10   15 1
  22   11   12 ar
  23   11   16 1
  24   12   13 ar
  25   12   39 1
  26   13   14 ar
  27   13   40 1
  28   14   41 1
  29   15   42 1
  30   15   43 1
  31   15   44 1
  32   16   17 am
  33   16   45 1
  34   17   18 2
  35   17   19 am
  36   19   20 am
  37   19   46 1
  38   20   21 1
  39   20   27 2
  40   21   22 ar
  41   21   26 ar
  42   22   23 ar
  43   22   29 1
  44   23   24 ar
  45   23   47 1
  46   24   25 ar
  47   24   28 1
  48   25   26 ar
  49   25   48 1
  50   26   49 1

#	End of record

