#	Name: ASD01915235
#	Creating user name:	WinNT
#	Creation time:	15. 06. 2019 20:05

#	Modifying user name:	WinNT
#	Modification time:	15. 06. 2019 20:05

#	Program:	/corina/corina34_cracker 3.40 0067  02.08.2006

@<TRIPOS>MOLECULE
ASD01915235
  28   29    0    0    0
SMALL
NO_CHARGES


@<TRIPOS>ATOM
   1 C1            -0.0169     1.3916    -0.0022 C.ar    
   2 C2             0.0024    -0.0047    -0.0126 C.ar    
   3 C3            -1.1842    -0.7155    -0.0122 C.ar    
   4 C4            -2.3955    -0.0489    -0.0010 C.ar    
   5 C5            -2.4270     1.3479     0.0100 C.ar    
   6 C6            -1.2345     2.0689     0.0145 C.ar    
   7 F7            -1.1595    -2.0662    -0.0232 F       
   8 C8             1.2523     2.1498    -0.0026 C.2     
   9 N9             2.4293     1.4934    -0.0131 N.am    
  10 O10            1.2342     3.3652     0.0065 O.2     
  11 C11            3.6270     2.2070    -0.1263 C.ar    
  12 C12            4.7646     1.7652     0.5387 C.ar    
  13 C13            5.9509     2.4667     0.4303 C.ar    
  14 C14            6.0139     3.6104    -0.3390 C.ar    
  15 C15            4.8765     4.0627    -1.0119 C.ar    
  16 C16            3.6808     3.3517    -0.9065 C.ar    
  17 C17           -3.6822     2.0371     0.0216 C.1     
  18 N18           -4.6779     2.5839     0.0308 N.1     
  19 C19            4.9387     5.2496    -1.8107 C.1     
  20 N20            4.9880     6.1912    -2.4443 N.1     
  21 H21            0.9457    -0.5306    -0.0214 H       
  22 H22           -3.3190    -0.6090    -0.0010 H       
  23 H23           -1.2540     3.1487     0.0230 H       
  24 H24            2.4459     0.5261     0.0578 H       
  25 H25            4.7215     0.8709     1.1427 H       
  26 H26            6.8314     2.1185     0.9498 H       
  27 H27            6.9423     4.1559    -0.4206 H       
  28 H28            2.7980     3.6965    -1.4244 H       
@<TRIPOS>BOND
   1    1    2 ar
   2    1    8 1
   3    1    6 ar
   4    2    3 ar
   5    2   21 1
   6    3    4 ar
   7    3    7 1
   8    4    5 ar
   9    4   22 1
  10    5    6 ar
  11    5   17 1
  12    6   23 1
  13    8    9 am
  14    8   10 2
  15    9   11 1
  16    9   24 1
  17   11   12 ar
  18   11   16 ar
  19   12   13 ar
  20   12   25 1
  21   13   14 ar
  22   13   26 1
  23   14   15 ar
  24   14   27 1
  25   15   16 ar
  26   15   19 1
  27   16   28 1
  28   17   18 3
  29   19   20 3

#	End of record

