#	Name: ASD01100086
#	Creating user name:	WinNT
#	Creation time:	15. 06. 2019 18:58

#	Modifying user name:	WinNT
#	Modification time:	15. 06. 2019 18:58

#	Program:	/corina/corina34_cracker 3.40 0067  02.08.2006

@<TRIPOS>MOLECULE
ASD01100086
  34   35    0    0    0
SMALL
NO_CHARGES


@<TRIPOS>ATOM
   1 C1             0.1110     1.5633    -0.2683 C.ar    
   2 C2             0.3184     0.2031    -0.4009 C.ar    
   3 C3             1.6002    -0.2880    -0.5640 C.ar    
   4 C4             2.6746     0.5813    -0.5949 C.ar    
   5 C5             2.4672     1.9416    -0.4632 C.ar    
   6 C6             1.1854     2.4325    -0.2987 C.ar    
   7 C7            -1.3850     2.8370     1.2137 C.2     
   8 C8            -1.2871     2.0992    -0.0968 C.3     
   9 O9            -1.0575     4.0029     1.2791 O.2     
  10 N10           -1.8365     2.2011     2.3129 N.am    
  11 S11           -2.3678     2.1636     5.0136 S.3     
  12 C12           -1.8269     2.8479     3.5432 C.2     
  13 N13           -1.4058     4.0575     3.7428 N.2     
  14 C14           -1.4682     4.5156     4.9790 C.2     
  15 C15           -1.9657     3.6519     5.8663 C.2     
  16 C16           -1.6112     3.0558    -1.2460 C.3     
  17 C17           -1.3958     2.3404    -2.5812 C.3     
  18 C18           -3.0692     3.5067    -1.1385 C.3     
  19 Cl19          -2.4211     0.5985     2.1940 Cl      
  20 H20           -0.5211    -0.4760    -0.3768 H       
  21 H21            1.7623    -1.3508    -0.6669 H       
  22 H22            3.6762     0.1975    -0.7216 H       
  23 H23            3.3066     2.6207    -0.4869 H       
  24 H24            1.0234     3.4953    -0.1954 H       
  25 H25           -1.9965     1.2717    -0.1018 H       
  26 H26           -1.1426     5.5089     5.2506 H       
  27 H27           -2.0987     3.8335     6.9226 H       
  28 H28           -0.9567     3.9257    -1.1902 H       
  29 H29           -2.0502     1.4705    -2.6370 H       
  30 H30           -1.6266     3.0218    -3.4000 H       
  31 H31           -0.3570     2.0191    -2.6578 H       
  32 H32           -3.2020     4.0933    -0.2294 H       
  33 H33           -3.3259     4.1163    -2.0049 H       
  34 H34           -3.7185     2.6319    -1.1045 H       
@<TRIPOS>BOND
   1    1    2 ar
   2    1    6 ar
   3    1    8 1
   4    2    3 ar
   5    2   20 1
   6    3    4 ar
   7    3   21 1
   8    4    5 ar
   9    4   22 1
  10    5    6 ar
  11    5   23 1
  12    6   24 1
  13    7    8 1
  14    7    9 2
  15    7   10 am
  16    8   16 1
  17    8   25 1
  18   10   12 1
  19   10   19 1
  20   11   12 1
  21   11   15 1
  22   12   13 2
  23   13   14 1
  24   14   15 2
  25   14   26 1
  26   15   27 1
  27   16   17 1
  28   16   18 1
  29   16   28 1
  30   17   29 1
  31   17   30 1
  32   17   31 1
  33   18   32 1
  34   18   33 1
  35   18   34 1

#	End of record

