#	Name: ASD01152474
#	Creating user name:	WinNT
#	Creation time:	15. 06. 2019 19:05

#	Modifying user name:	WinNT
#	Modification time:	15. 06. 2019 19:05

#	Program:	/corina/corina34_cracker 3.40 0067  02.08.2006

@<TRIPOS>MOLECULE
ASD01152474
  49   51    0    0    0
SMALL
NO_CHARGES


@<TRIPOS>ATOM
   1 C1             0.1107     1.1569    -0.6965 C.2     
   2 N2             0.0184    -0.1438    -0.6179 N.2     
   3 N3            -1.1208    -0.7663    -0.1081 N.am    
   4 C4            -2.2618    -0.0996     0.1332 C.2     
   5 C5            -2.3931     1.3532    -0.2595 C.3     
   6 C6            -1.0091     1.9734    -0.2041 C.2     
   7 C7            -2.9569     1.4574    -1.6780 C.3     
   8 O8            -0.8367     3.0970     0.2214 O.2     
   9 C9            -1.0736    -2.1392     0.1619 C.ar    
  10 O10           -3.1905    -0.6665     0.6685 O.2     
  11 C11           -3.2038     2.9276    -2.0219 C.3     
  12 C12           -0.0101    -2.6697     0.8787 C.ar    
  13 C13           -2.0943    -2.9704    -0.2825 C.ar    
  14 C14           -2.0494    -4.3253    -0.0164 C.ar    
  15 C15           -0.9885    -4.8585     0.6937 C.ar    
  16 C16            0.0336    -4.0301     1.1451 C.ar    
  17 C17           -3.7591     3.0303    -3.4191 C.ar    
  18 F18           -0.9475    -6.1838     0.9528 F       
  19 C19           -5.1259     2.9925    -3.6237 C.ar    
  20 C20           -5.6362     3.0870    -4.9045 C.ar    
  21 C21           -4.7782     3.2196    -5.9830 C.ar    
  22 C22           -3.4096     3.2574    -5.7769 C.ar    
  23 C23           -2.9017     3.1680    -4.4948 C.ar    
  24 F24           -5.2760     3.3116    -7.2356 F       
  25 N25            1.1054    -4.5690     1.8677 N.am    
  26 C26            1.7698    -3.8055     2.7576 C.2     
  27 O27            1.5003    -2.6279     2.8670 O.2     
  28 C28            2.8477    -4.4147     3.6167 C.3     
  29 O29            1.2204     1.7434    -1.2172 O.3     
  30 C30            2.2629     0.8753    -1.6663 C.3     
  31 H31           -3.0536     1.8662     0.4395 H       
  32 H32           -2.2432     1.0339    -2.3847 H       
  33 H33           -3.8963     0.9077    -1.7370 H       
  34 H34           -3.9175     3.3512    -1.3153 H       
  35 H35           -2.2644     3.4773    -1.9630 H       
  36 H36            0.7822    -2.0243     1.2282 H       
  37 H37           -2.9241    -2.5569    -0.8365 H       
  38 H38           -2.8440    -4.9694    -0.3629 H       
  39 H39           -5.7949     2.8887    -2.7823 H       
  40 H40           -6.7040     3.0571    -5.0641 H       
  41 H41           -2.7393     3.3608    -6.6175 H       
  42 H42           -1.8342     3.1974    -4.3337 H       
  43 H43            1.3695    -5.4918     1.7277 H       
  44 H44            2.9468    -5.4738     3.3786 H       
  45 H45            3.7941    -3.9091     3.4252 H       
  46 H46            2.5816    -4.3020     4.6677 H       
  47 H47            3.0878     1.4705    -2.0578 H       
  48 H48            2.6160     0.2696    -0.8317 H       
  49 H49            1.8800     0.2238    -2.4518 H       
@<TRIPOS>BOND
   1    1    2 2
   2    1   29 1
   3    1    6 1
   4    2    3 1
   5    3    4 am
   6    3    9 1
   7    4    5 1
   8    4   10 2
   9    5    6 1
  10    5    7 1
  11    5   31 1
  12    6    8 2
  13    7   11 1
  14    7   32 1
  15    7   33 1
  16    9   12 ar
  17    9   13 ar
  18   11   17 1
  19   11   34 1
  20   11   35 1
  21   12   16 ar
  22   12   36 1
  23   13   14 ar
  24   13   37 1
  25   14   15 ar
  26   14   38 1
  27   15   16 ar
  28   15   18 1
  29   16   25 1
  30   17   19 ar
  31   17   23 ar
  32   19   20 ar
  33   19   39 1
  34   20   21 ar
  35   20   40 1
  36   21   22 ar
  37   21   24 1
  38   22   23 ar
  39   22   41 1
  40   23   42 1
  41   25   26 am
  42   25   43 1
  43   26   27 2
  44   26   28 1
  45   28   44 1
  46   28   45 1
  47   28   46 1
  48   29   30 1
  49   30   47 1
  50   30   48 1
  51   30   49 1

#	End of record

