#	Name: ASD03330376
#	Creating user name:	WinNT
#	Creation time:	15. 06. 2019 20:37

#	Modifying user name:	WinNT
#	Modification time:	15. 06. 2019 20:37

#	Program:	/corina/corina34_cracker 3.40 0067  02.08.2006

@<TRIPOS>MOLECULE
ASD03330376
  60   63    0    0    0
SMALL
NO_CHARGES


@<TRIPOS>ATOM
   1 C1            -0.0179     1.4655     0.0101 C.3     
   2 N2             0.0021    -0.0041     0.0020 N.3     
   3 C3             0.4494    -0.5231    -1.3031 C.3     
   4 C4             1.7237     0.1898    -1.6760 C.2     
   5 N5             2.1519     1.3316    -1.0766 N.pl3   
   6 C6             1.4184     2.0045    -0.0007 C.3     
   7 C7             2.6412    -0.1377    -2.6198 C.2     
   8 N8             3.6164     0.7992    -2.5865 N.2     
   9 C9             3.3274     1.6849    -1.6595 C.2     
  10 C10            4.1446     2.8676    -1.3094 C.ar    
  11 C11            5.1552     3.2999    -2.1686 C.ar    
  12 C12            2.5858    -1.3038    -3.5191 C.2     
  13 O13            1.6513    -2.0793    -3.4524 O.2     
  14 C14            3.5154    -2.6701    -5.3097 C.3     
  15 N15            3.5706    -1.5109    -4.4156 N.am    
  16 C16           -1.3129    -0.5504     0.3632 C.3     
  17 C17            5.9135     4.4038    -1.8366 C.ar    
  18 C18            5.6734     5.0815    -0.6547 C.ar    
  19 C19            4.6727     4.6578     0.2015 C.ar    
  20 C20            3.9040     3.5585    -0.1215 C.ar    
  21 C21            4.3232    -2.3768    -6.5755 C.3     
  22 C22           -2.3291    -0.1942    -0.7236 C.3     
  23 C23            4.1052    -3.8903    -4.5996 C.3     
  24 C24            4.2656    -3.5874    -7.5092 C.3     
  25 C25            3.7335    -1.1566    -7.2855 C.3     
  26 C26            4.5413    -0.8632    -8.5514 C.3     
  27 C27            4.4837    -2.0739    -9.4851 C.3     
  28 C28            5.0734    -3.2941    -8.7751 C.3     
  29 H29           -0.5467     1.8255    -0.8724 H       
  30 H30           -0.5297     1.8160     0.9063 H       
  31 H31            0.6347    -1.5947    -1.2296 H       
  32 H32           -0.3141    -0.3315    -2.0571 H       
  33 H33            1.4064     3.0795    -0.1803 H       
  34 H34            1.8965     1.7963     0.9564 H       
  35 H35            5.3438     2.7714    -3.0914 H       
  36 H36            2.4787    -2.8723    -5.5789 H       
  37 H37            4.3159    -0.8923    -4.4688 H       
  38 H38           -1.2433    -1.6343     0.4544 H       
  39 H39           -1.6340    -0.1256     1.3143 H       
  40 H40            6.6963     4.7393    -2.5007 H       
  41 H41            6.2699     5.9449    -0.3992 H       
  42 H42            4.4902     5.1911     1.1228 H       
  43 H43            3.1231     3.2287     0.5477 H       
  44 H44            5.3599    -2.1746    -6.3062 H       
  45 H45           -3.3048    -0.5995    -0.4556 H       
  46 H46           -2.3986     0.8898    -0.8148 H       
  47 H47           -2.0080    -0.6190    -1.6747 H       
  48 H48            5.1419    -3.6881    -4.3304 H       
  49 H49            3.5297    -4.0993    -3.6978 H       
  50 H50            4.0642    -4.7528    -5.2648 H       
  51 H51            4.6858    -4.4567    -7.0034 H       
  52 H52            3.2289    -3.7896    -7.7785 H       
  53 H53            2.6968    -1.3587    -7.5548 H       
  54 H54            3.7745    -0.2941    -6.6203 H       
  55 H55            4.1211     0.0061    -9.0572 H       
  56 H56            5.5780    -0.6611    -8.2821 H       
  57 H57            3.4470    -2.2761    -9.7544 H       
  58 H58            5.0592    -1.8649   -10.3869 H       
  59 H59            6.1101    -3.0919    -8.5058 H       
  60 H60            5.0324    -4.1566    -9.4403 H       
@<TRIPOS>BOND
   1    1    2 1
   2    1    6 1
   3    1   29 1
   4    1   30 1
   5    2    3 1
   6    2   16 1
   7    3    4 1
   8    3   31 1
   9    3   32 1
  10    4    5 1
  11    4    7 2
  12    5    6 1
  13    5    9 1
  14    6   33 1
  15    6   34 1
  16    7    8 1
  17    7   12 1
  18    8    9 2
  19    9   10 1
  20   10   11 ar
  21   10   20 ar
  22   11   17 ar
  23   11   35 1
  24   12   13 2
  25   12   15 am
  26   14   23 1
  27   14   15 1
  28   14   21 1
  29   14   36 1
  30   15   37 1
  31   16   22 1
  32   16   38 1
  33   16   39 1
  34   17   18 ar
  35   17   40 1
  36   18   19 ar
  37   18   41 1
  38   19   20 ar
  39   19   42 1
  40   20   43 1
  41   21   24 1
  42   21   25 1
  43   21   44 1
  44   22   45 1
  45   22   46 1
  46   22   47 1
  47   23   48 1
  48   23   49 1
  49   23   50 1
  50   24   28 1
  51   24   51 1
  52   24   52 1
  53   25   26 1
  54   25   53 1
  55   25   54 1
  56   26   27 1
  57   26   55 1
  58   26   56 1
  59   27   28 1
  60   27   57 1
  61   27   58 1
  62   28   59 1
  63   28   60 1

#	End of record

