#	Name: ASD01881597
#	Creating user name:	WinNT
#	Creation time:	15. 06. 2019 19:43

#	Modifying user name:	WinNT
#	Modification time:	15. 06. 2019 19:43

#	Program:	/corina/corina34_cracker 3.40 0067  02.08.2006

@<TRIPOS>MOLECULE
ASD01881597
  27   28    0    0    0
SMALL
NO_CHARGES


@<TRIPOS>ATOM
   1 O1            -0.0161     1.3335     0.0094 O.3     
   2 C2             0.0021    -0.0041     0.0020 C.2     
   3 N3             1.2348    -0.5293    -0.0126 N.am    
   4 C4             2.2183     0.5645    -0.0161 C.3     
   5 C5             1.3508     1.8380    -0.0010 C.3     
   6 O6            -1.0070    -0.6809     0.0087 O.2     
   7 C7             1.6043     2.6745    -1.2567 C.3     
   8 C8             1.5514    -1.9597    -0.0233 C.3     
   9 C9             1.6469    -2.4423    -1.4477 C.ar    
  10 C10            2.8598    -2.4049    -2.1101 C.ar    
  11 C11            2.9480    -2.8479    -3.4163 C.ar    
  12 C12            1.8225    -3.3288    -4.0608 C.ar    
  13 C13            0.6091    -3.3661    -3.3977 C.ar    
  14 C14            0.5230    -2.9278    -2.0897 C.ar    
  15 Br15           1.9424    -3.9345    -5.8482 Br      
  16 H16            2.8457     0.5181     0.8740 H       
  17 H17            2.8286     0.5277    -0.9184 H       
  18 H18            1.5485     2.4243     0.8964 H       
  19 H19            0.9328     3.5332    -1.2629 H       
  20 H20            2.6376     3.0213    -1.2597 H       
  21 H21            1.4229     2.0651    -2.1420 H       
  22 H22            2.5035    -2.1248     0.4810 H       
  23 H23            0.7656    -2.5096     0.4948 H       
  24 H24            3.7384    -2.0291    -1.6069 H       
  25 H25            3.8954    -2.8183    -3.9339 H       
  26 H26           -0.2699    -3.7412    -3.9006 H       
  27 H27           -0.4234    -2.9607    -1.5704 H       
@<TRIPOS>BOND
   1    1    2 1
   2    1    5 1
   3    2    3 am
   4    2    6 2
   5    3    4 1
   6    3    8 1
   7    4    5 1
   8    4   16 1
   9    4   17 1
  10    5    7 1
  11    5   18 1
  12    7   19 1
  13    7   20 1
  14    7   21 1
  15    8    9 1
  16    8   22 1
  17    8   23 1
  18    9   10 ar
  19    9   14 ar
  20   10   11 ar
  21   10   24 1
  22   11   12 ar
  23   11   25 1
  24   12   13 ar
  25   12   15 1
  26   13   14 ar
  27   13   26 1
  28   14   27 1

#	End of record

