#	Name: ASD01915349
#	Creating user name:	WinNT
#	Creation time:	15. 06. 2019 20:05

#	Modifying user name:	WinNT
#	Modification time:	15. 06. 2019 20:05

#	Program:	/corina/corina34_cracker 3.40 0067  02.08.2006

@<TRIPOS>MOLECULE
ASD01915349
  47   51    0    0    0
SMALL
NO_CHARGES


@<TRIPOS>ATOM
   1 C1            -0.0168     1.3849     0.0097 C.ar    
   2 C2             0.0021    -0.0041     0.0020 C.ar    
   3 C3             1.2210    -0.6671    -0.0132 C.ar    
   4 N4             2.3533     0.0023    -0.0204 N.ar    
   5 C5             2.3778     1.3302    -0.0135 C.ar    
   6 C6             1.1908     2.0617     0.0018 C.ar    
   7 F7            -1.1545    -0.7023     0.0098 F       
   8 C8             3.6756     2.0394    -0.0216 C.2     
   9 N9             4.8756     1.4880    -0.0355 N.2     
  10 C10            5.7424     2.5125    -0.0385 C.2     
  11 N11            5.0506     3.6136    -0.0265 N.2     
  12 O12            3.8628     3.3682    -0.0221 O.3     
  13 C13            7.2456     2.4063    -0.0526 C.3     
  14 C14            7.7973     3.0954    -1.3034 C.3     
  15 C15            9.3092     2.9053    -1.3686 C.3     
  16 C16            9.9932     3.5099    -0.1518 C.3     
  17 N17            9.2564     3.2013     1.0833 N.am    
  18 C18            7.8210     3.1000     1.1850 C.3     
  19 C19            9.9528     5.0973    -0.3545 C.3     
  20 C20           10.3520     5.5883     1.0749 C.3     
  21 C21           11.5492     4.8156     1.5121 C.ar    
  22 C22           11.4886     3.5391     1.9727 C.ar    
  23 C23           10.0868     3.0155     2.1653 C.2     
  24 O24            9.7212     2.4742     3.1906 O.2     
  25 C25           12.8026     5.4222     1.4309 C.ar    
  26 C26           13.9318     4.6974     1.7742 C.ar    
  27 C27           13.8460     3.3771     2.1903 C.ar    
  28 C28           12.6007     2.7769     2.2927 C.ar    
  29 F29           15.1440     5.2896     1.7018 F       
  30 H30           -0.9523     1.9246     0.0170 H       
  31 H31            1.2402    -1.7469    -0.0188 H       
  32 H32            1.2132     3.1415     0.0070 H       
  33 H33            7.5378     1.3562    -0.0548 H       
  34 H34            7.3382     2.6590    -2.1905 H       
  35 H35            7.5669     4.1600    -1.2627 H       
  36 H36            9.5336     1.8395    -1.4117 H       
  37 H37            9.6912     3.3865    -2.2689 H       
  38 H38           11.0194     3.1498    -0.0784 H       
  39 H39            7.3941     4.0994     1.2691 H       
  40 H40            7.5623     2.5246     2.0740 H       
  41 H41           10.6829     5.4172    -1.0980 H       
  42 H42            8.9509     5.4342    -0.6202 H       
  43 H43           10.5906     6.6515     1.0456 H       
  44 H44            9.5284     5.4141     1.7673 H       
  45 H45           12.8917     6.4473     1.1029 H       
  46 H46           14.7404     2.8223     2.4321 H       
  47 H47           12.5006     1.7498     2.6112 H       
@<TRIPOS>BOND
   1    1    2 ar
   2    1    6 ar
   3    1   30 1
   4    2    3 ar
   5    2    7 1
   6    3    4 ar
   7    3   31 1
   8    4    5 ar
   9    5    6 ar
  10    5    8 1
  11    6   32 1
  12    8    9 2
  13    8   12 1
  14    9   10 1
  15   10   11 2
  16   10   13 1
  17   11   12 1
  18   13   14 1
  19   13   18 1
  20   13   33 1
  21   14   15 1
  22   14   34 1
  23   14   35 1
  24   15   16 1
  25   15   36 1
  26   15   37 1
  27   16   17 1
  28   16   19 1
  29   16   38 1
  30   17   18 1
  31   17   23 am
  32   18   39 1
  33   18   40 1
  34   19   20 1
  35   19   41 1
  36   19   42 1
  37   20   21 1
  38   20   43 1
  39   20   44 1
  40   21   22 ar
  41   21   25 ar
  42   22   23 1
  43   22   28 ar
  44   23   24 2
  45   25   26 ar
  46   25   45 1
  47   26   27 ar
  48   26   29 1
  49   27   28 ar
  50   27   46 1
  51   28   47 1

#	End of record

