#	Name: ASD02500545
#	Creating user name:	WinNT
#	Creation time:	15. 06. 2019 20:23

#	Modifying user name:	WinNT
#	Modification time:	15. 06. 2019 20:23

#	Program:	/corina/corina34_cracker 3.40 0067  02.08.2006

@<TRIPOS>MOLECULE
ASD02500545
  70   73    0    0    0
SMALL
NO_CHARGES


@<TRIPOS>ATOM
   1 N1            -3.5565     5.4195    -0.0388 N.ar    
   2 C2            -4.7334     5.9743    -0.2003 C.ar    
   3 C3            -5.8023     5.6848     0.6445 C.ar    
   4 C4            -5.6380     4.8018     1.6739 C.ar    
   5 C5            -4.3733     4.2082     1.8440 C.ar    
   6 C6            -4.1291     3.2911     2.8791 C.ar    
   7 C7            -2.8919     2.7383     3.0101 C.ar    
   8 C8            -1.8633     3.0707     2.1305 C.ar    
   9 C9            -2.0649     3.9555     1.1165 C.ar    
  10 C10           -3.3290     4.5475     0.9482 C.ar    
  11 S11           -0.7465     4.3583     0.0191 S.o2    
  12 O12           -0.6987     5.7769    -0.0470 O.2     
  13 O13            0.3616     3.5608     0.4134 O.2     
  14 N14           -1.1865     3.8344    -1.4889 N.am    
  15 C15           -1.4058     2.4806    -1.7181 C.ar    
  16 C16           -2.5387     2.0684    -2.4143 C.ar    
  17 C17           -2.7585     0.7293    -2.6426 C.ar    
  18 C18           -1.8427    -0.2176    -2.1747 C.ar    
  19 C19           -0.7060     0.1995    -1.4760 C.ar    
  20 C20           -0.4889     1.5404    -1.2558 C.ar    
  21 C21           -2.0755    -1.6539    -2.4174 C.2     
  22 O22           -1.1447    -2.3799    -2.7091 O.2     
  23 N23           -3.3199    -2.1615    -2.3160 N.am    
  24 C24           -3.5621    -3.6036    -2.4732 C.3     
  25 C25           -4.3820    -4.0930    -1.2747 C.3     
  26 N26           -5.5921    -3.2705    -1.1446 N.3     
  27 C27           -5.2558    -1.8684    -0.8634 C.3     
  28 C28           -4.4709    -1.2886    -2.0390 C.3     
  29 C29           -6.4894    -3.8131    -0.1158 C.3     
  30 C30           -7.5906    -2.8229     0.1634 C.ar    
  31 C31           -8.7668    -2.8748    -0.5609 C.ar    
  32 C32           -9.7768    -1.9664    -0.3048 C.ar    
  33 C33           -9.6108    -1.0064     0.6759 C.ar    
  34 C34           -8.4349    -0.9551     1.4008 C.ar    
  35 C35           -7.4266    -1.8662     1.1477 C.ar    
  36 H36           -2.8376     5.6434    -0.6503 H       
  37 H37           -4.8778     6.6747    -1.0096 H       
  38 H38           -6.7600     6.1583     0.4862 H       
  39 H39           -6.4557     4.5659     2.3387 H       
  40 H40           -4.9180     3.0262     3.5674 H       
  41 H41           -2.7050     2.0330     3.8064 H       
  42 H42           -0.8904     2.6189     2.2558 H       
  43 H43           -1.2914     4.4719    -2.2124 H       
  44 H44           -3.2461     2.8004    -2.7752 H       
  45 H45           -3.6378     0.4102    -3.1825 H       
  46 H46            0.0032    -0.5297    -1.1130 H       
  47 H47            0.3915     1.8635    -0.7201 H       
  48 H48           -4.1168    -3.7835    -3.3942 H       
  49 H49           -2.6101    -4.1333    -2.5064 H       
  50 H50           -4.6648    -5.1344    -1.4283 H       
  51 H51           -3.7851    -4.0080    -0.3666 H       
  52 H52           -6.1723    -1.2965    -0.7188 H       
  53 H53           -4.6467    -1.8144     0.0389 H       
  54 H54           -4.1194    -0.2886    -1.7853 H       
  55 H55           -5.1145    -1.2417    -2.9174 H       
  56 H56           -6.9231    -4.7488    -0.4687 H       
  57 H57           -5.9251    -3.9963     0.7986 H       
  58 H58           -8.8965    -3.6248    -1.3271 H       
  59 H59          -10.6956    -2.0065    -0.8712 H       
  60 H60          -10.3997    -0.2963     0.8754 H       
  61 H61           -8.3051    -0.2048     2.1667 H       
  62 H62           -6.5093    -1.8284     1.7166 H       
  63 C63            6.7373    13.9761    10.0179 C.3     
  64 S64            6.7619    12.1623    10.0079 S.o2    
  65 O65            7.4680    11.6964    11.1912 O.co2   
  66 O66            5.3915    11.6747    10.0184 O.co2   
  67 O67            7.4453    11.7092     8.8064 O.co2   
  68 H68            7.7599    14.3534    10.0101 H       
  69 H69            6.2101    14.3372     9.1348 H       
  70 H70            6.2271    14.3277    10.9147 H       
@<TRIPOS>BOND
   1    1    2 ar
   2    1   10 ar
   3    1   36 1
   4    2    3 ar
   5    2   37 1
   6    3    4 ar
   7    3   38 1
   8    4    5 ar
   9    4   39 1
  10    5    6 ar
  11    5   10 ar
  12    6    7 ar
  13    6   40 1
  14    7    8 ar
  15    7   41 1
  16    8    9 ar
  17    8   42 1
  18    9   10 ar
  19    9   11 1
  20   11   12 2
  21   11   13 2
  22   11   14 am
  23   14   15 1
  24   14   43 1
  25   15   16 ar
  26   15   20 ar
  27   16   17 ar
  28   16   44 1
  29   17   18 ar
  30   17   45 1
  31   18   19 ar
  32   18   21 1
  33   19   20 ar
  34   19   46 1
  35   20   47 1
  36   21   22 2
  37   21   23 am
  38   23   24 1
  39   23   28 1
  40   24   25 1
  41   24   48 1
  42   24   49 1
  43   25   26 1
  44   25   50 1
  45   25   51 1
  46   26   27 1
  47   26   29 1
  48   27   28 1
  49   27   52 1
  50   27   53 1
  51   28   54 1
  52   28   55 1
  53   29   30 1
  54   29   56 1
  55   29   57 1
  56   30   31 ar
  57   30   35 ar
  58   31   32 ar
  59   31   58 1
  60   32   33 ar
  61   32   59 1
  62   33   34 ar
  63   33   60 1
  64   34   35 ar
  65   34   61 1
  66   35   62 1
  67   63   64 1
  68   63   68 1
  69   63   69 1
  70   63   70 1
  71   64   65 ar
  72   64   66 ar
  73   64   67 ar

#	End of record

