#	Name: ASD07300142
#	Creating user name:	WinNT
#	Creation time:	15. 06. 2019 21:09

#	Modifying user name:	WinNT
#	Modification time:	15. 06. 2019 21:09

#	Program:	/corina/corina34_cracker 3.40 0067  02.08.2006

@<TRIPOS>MOLECULE
ASD07300142
  69   73    0    0    0
SMALL
NO_CHARGES


@<TRIPOS>ATOM
   1 C1            -1.1347     0.9041    -0.4136 C.ar    
   2 C2            -0.4721    -0.2056     0.1192 C.ar    
   3 C3            -0.3609    -1.3608    -0.6409 C.ar    
   4 C4            -0.9177    -1.3664    -1.9112 C.ar    
   5 C5            -1.5591    -0.2326    -2.3747 C.ar    
   6 N6            -1.6508     0.8523    -1.6307 N.ar    
   7 C7            -0.4254     1.4215     1.6267 C.2     
   8 N8            -1.0854     1.8997     0.5555 N.am    
   9 N9            -0.0470     0.1498     1.3958 N.am    
  10 O10           -0.2080     2.0423     2.6504 O.2     
  11 O11           -3.2363     6.9736     0.0866 O.3     
  12 C12           -2.0488     5.3572     1.3658 C.ar    
  13 C13           -1.5122     4.0905     1.4836 C.ar    
  14 C14           -1.6312     3.1864     0.4367 C.ar    
  15 C15           -2.2901     3.5563    -0.7279 C.ar    
  16 C16           -2.8268     4.8232    -0.8445 C.ar    
  17 C17           -2.7077     5.7263     0.2019 C.ar    
  18 C18           -2.3919     8.0008    -0.1422 C.2     
  19 C19           -2.8061     9.4714    -0.2588 C.3     
  20 C20            0.6930    -0.7082     2.3245 C.3     
  21 C21            2.1954    -0.5268     2.0995 C.3     
  22 N22           -1.0958     7.8899    -0.2920 N.2     
  23 C23           -0.5311     9.1816    -0.5623 C.3     
  24 C24           -1.5043    10.1676     0.1581 C.3     
  25 C25            0.8380     9.5864    -0.1662 C.2     
  26 C26            1.0551    10.9187    -0.1924 C.2     
  27 N27            0.0693    11.7796    -0.5865 N.2     
  28 C28           -1.2005    11.5015    -0.4425 C.2     
  29 C29           -3.1861     9.8259    -1.6978 C.3     
  30 O30           -4.3724     9.1190    -2.0652 O.3     
  31 C31           -4.8157     9.3807    -3.3983 C.3     
  32 C32           -6.0855     8.5753    -3.6809 C.3     
  33 Si33          -6.6634     8.9165    -5.4188 Si      
  34 C34           -5.3324     8.4207    -6.6244 C.3     
  35 C35           -8.2095     7.9359    -5.7629 C.3     
  36 C36           -7.0260    10.7342    -5.6071 C.3     
  37 H37            0.1461    -2.2323    -0.2539 H       
  38 H38           -0.8506    -2.2474    -2.5322 H       
  39 H39           -1.9931    -0.2358    -3.3636 H       
  40 H40           -1.9602     6.0591     2.1819 H       
  41 H41           -0.9990     3.8034     2.3895 H       
  42 H42           -2.3826     2.8535    -1.5427 H       
  43 H43           -3.3391     5.1112    -1.7506 H       
  44 H44           -3.6176     9.7076     0.4295 H       
  45 H45            0.4434    -0.4343     3.3496 H       
  46 H46            0.4227    -1.7498     2.1507 H       
  47 H47            2.7460    -1.1652     2.7905 H       
  48 H48            2.4450    -0.8007     1.0745 H       
  49 H49            2.4657     0.5148     2.2734 H       
  50 H50           -0.6249     9.3648    -1.6328 H       
  51 H51           -1.3714    10.1650     1.2399 H       
  52 H52            1.5986     8.8752     0.1203 H       
  53 H53            2.0183    11.3086     0.1018 H       
  54 H54           -1.9785    12.1885    -0.7412 H       
  55 H55           -3.3645    10.8986    -1.7727 H       
  56 H56           -2.3736     9.5451    -2.3679 H       
  57 H57           -5.0279    10.4442    -3.5085 H       
  58 H58           -4.0369     9.0906    -4.1037 H       
  59 H59           -5.8733     7.5119    -3.5707 H       
  60 H60           -6.8642     8.8654    -2.9755 H       
  61 H61           -5.1202     7.3573    -6.5143 H       
  62 H62           -5.6705     8.6203    -7.6412 H       
  63 H63           -4.4277     8.9945    -6.4231 H       
  64 H64           -8.9883     8.2259    -5.0575 H       
  65 H65           -8.5476     8.1355    -6.7797 H       
  66 H66           -7.9974     6.8724    -5.6528 H       
  67 H67           -6.1214    11.3079    -5.4058 H       
  68 H68           -7.3641    10.9338    -6.6239 H       
  69 H69           -7.8048    11.0242    -4.9017 H       
@<TRIPOS>BOND
   1    1    2 ar
   2    1    6 ar
   3    1    8 1
   4    2    3 ar
   5    2    9 1
   6    3    4 ar
   7    3   37 1
   8    4    5 ar
   9    4   38 1
  10    5    6 ar
  11    5   39 1
  12    7    8 am
  13    7    9 am
  14    7   10 2
  15    8   14 1
  16    9   20 1
  17   11   17 1
  18   11   18 1
  19   12   13 ar
  20   12   17 ar
  21   12   40 1
  22   13   14 ar
  23   13   41 1
  24   14   15 ar
  25   15   16 ar
  26   15   42 1
  27   16   17 ar
  28   16   43 1
  29   18   19 1
  30   18   22 2
  31   19   29 1
  32   19   24 1
  33   19   44 1
  34   20   21 1
  35   20   45 1
  36   20   46 1
  37   21   47 1
  38   21   48 1
  39   21   49 1
  40   22   23 1
  41   23   24 1
  42   23   25 1
  43   23   50 1
  44   24   28 1
  45   24   51 1
  46   25   26 2
  47   25   52 1
  48   26   27 1
  49   26   53 1
  50   27   28 2
  51   28   54 1
  52   29   30 1
  53   29   55 1
  54   29   56 1
  55   30   31 1
  56   31   32 1
  57   31   57 1
  58   31   58 1
  59   32   33 1
  60   32   59 1
  61   32   60 1
  62   33   34 1
  63   33   35 1
  64   33   36 1
  65   34   61 1
  66   34   62 1
  67   34   63 1
  68   35   64 1
  69   35   65 1
  70   35   66 1
  71   36   67 1
  72   36   68 1
  73   36   69 1

#	End of record

