#	Name: ASD01812861
#	Creating user name:	WinNT
#	Creation time:	15. 06. 2019 19:29

#	Modifying user name:	WinNT
#	Modification time:	15. 06. 2019 19:29

#	Program:	/corina/corina34_cracker 3.40 0067  02.08.2006

@<TRIPOS>MOLECULE
ASD01812861
  54   58    0    0    0
SMALL
NO_CHARGES


@<TRIPOS>ATOM
   1 N1            -0.0158     1.3146     0.0093 N.ar    
   2 C2             0.0021    -0.0041     0.0020 C.ar    
   3 C3             1.1989    -0.7034    -0.0127 C.ar    
   4 C4             2.3830    -0.0016    -0.0202 C.ar    
   5 C5             2.3451     1.3976    -0.0128 C.ar    
   6 C6             1.0957     2.0332     0.0025 C.ar    
   7 C7             3.8375    -0.3894    -0.0358 C.3     
   8 N8             4.5957     0.8679    -0.0366 N.am    
   9 C9             3.7284     1.8957    -0.0233 C.2     
  10 C10            6.0561     0.9838    -0.0501 C.3     
  11 C11            6.5431     1.0309    -1.4754 C.ar    
  12 C12            6.6710     2.2480    -2.1201 C.ar    
  13 C13            7.1170     2.2969    -3.4254 C.ar    
  14 C14            7.4386     1.1176    -4.0935 C.ar    
  15 C15            7.3079    -0.1054    -3.4396 C.ar    
  16 C16            6.8660    -0.1426    -2.1325 C.ar    
  17 O17            1.0259     3.3855     0.0100 O.3     
  18 O18            4.0434     3.0701    -0.0199 O.2     
  19 C19           -0.2049     3.9605     0.0244 C.ar    
  20 C20           -0.8222     4.2481     1.2371 C.ar    
  21 C21           -2.0718     4.8324     1.2555 C.ar    
  22 C22           -2.7174     5.1354     0.0538 C.ar    
  23 C23           -2.0942     4.8450    -1.1628 C.ar    
  24 C24           -0.8422     4.2655    -1.1736 C.ar    
  25 C25           -4.0147     5.7415     0.0690 C.1     
  26 F26           -0.1975     3.9544     2.3985 F       
  27 C27            7.3279     1.8332    -6.5298 C.2     
  28 C28            7.9184     1.1641    -5.4978 C.2     
  29 C29            9.0659     0.5254    -6.0069 C.2     
  30 N30            9.1529     0.8021    -7.2810 N.2     
  31 N31            8.0735     1.6215    -7.6330 N.pl3   
  32 C32            7.8011     2.1560    -8.9695 C.3     
  33 F33           -0.2366     3.9896    -2.3493 F       
  34 N34           -5.0439     6.2223     0.0810 N.1     
  35 C35           10.0262    -0.3280    -5.2192 C.3     
  36 H36           -0.9309    -0.5480     0.0080 H       
  37 H37            1.2023    -1.7834    -0.0178 H       
  38 H38            4.0795    -0.9725     0.8527 H       
  39 H39            4.0627    -0.9635    -0.9345 H       
  40 H40            6.3529     1.8970     0.4657 H       
  41 H41            6.4936     0.1226     0.4550 H       
  42 H42            6.4211     3.1617    -1.6012 H       
  43 H43            7.2162     3.2477    -3.9279 H       
  44 H44            7.5559    -1.0226    -3.9531 H       
  45 H45            6.7682    -1.0900    -1.6233 H       
  46 H46           -2.5507     5.0551     2.1976 H       
  47 H47           -2.5904     5.0775    -2.0935 H       
  48 H48            6.4243     2.4221    -6.4742 H       
  49 H49            8.2941     3.1217    -9.0820 H       
  50 H50            8.1806     1.4645    -9.7217 H       
  51 H51            6.7259     2.2797    -9.0991 H       
  52 H52            9.6971    -1.3667    -5.2481 H       
  53 H53           11.0225    -0.2503    -5.6546 H       
  54 H54           10.0538     0.0158    -4.1852 H       
@<TRIPOS>BOND
   1    1    2 ar
   2    1    6 ar
   3    2    3 ar
   4    2   36 1
   5    3    4 ar
   6    3   37 1
   7    4    7 1
   8    4    5 ar
   9    5    6 ar
  10    5    9 1
  11    6   17 1
  12    7    8 1
  13    7   38 1
  14    7   39 1
  15    8    9 am
  16    8   10 1
  17    9   18 2
  18   10   11 1
  19   10   40 1
  20   10   41 1
  21   11   12 ar
  22   11   16 ar
  23   12   13 ar
  24   12   42 1
  25   13   14 ar
  26   13   43 1
  27   14   15 ar
  28   14   28 1
  29   15   16 ar
  30   15   44 1
  31   16   45 1
  32   17   19 1
  33   19   20 ar
  34   19   24 ar
  35   20   21 ar
  36   20   26 1
  37   21   22 ar
  38   21   46 1
  39   22   23 ar
  40   22   25 1
  41   23   24 ar
  42   23   47 1
  43   24   33 1
  44   25   34 3
  45   27   28 2
  46   27   31 1
  47   27   48 1
  48   28   29 1
  49   29   30 2
  50   29   35 1
  51   30   31 1
  52   31   32 1
  53   32   49 1
  54   32   50 1
  55   32   51 1
  56   35   52 1
  57   35   53 1
  58   35   54 1

#	End of record

