#	Name: ASD00731005
#	Creating user name:	WinNT
#	Creation time:	15. 06. 2019 18:37

#	Modifying user name:	WinNT
#	Modification time:	15. 06. 2019 18:37

#	Program:	/corina/corina34_cracker 3.40 0067  02.08.2006

@<TRIPOS>MOLECULE
ASD00731005
 328  330    0    0    0
SMALL
NO_CHARGES


@<TRIPOS>ATOM
   1 C1           -15.4784   -14.6244    14.4601 C.2     
   2 O2           -15.9976   -15.7137    14.5820 O.2     
   3 N3           -13.6345   -15.4992    15.7791 N.3     
   4 C4           -14.0390   -14.4269    14.8602 C.3     
   5 C5           -13.1535   -14.4630    13.6130 C.3     
   6 C6           -11.7099   -14.1389    14.0028 C.3     
   7 C7           -10.8244   -14.1750    12.7556 C.3     
   8 N8            -9.4422   -13.8647    13.1289 N.pl3   
   9 C9            -8.4602   -13.8381    12.1677 C.2     
  10 N10           -8.7531   -14.1161    10.9300 N.2     
  11 N11           -7.1622   -13.5163    12.5148 N.am    
  12 C12          -17.8561   -12.8043    12.3861 C.2     
  13 O13          -17.2556   -11.7512    12.3490 O.2     
  14 N14          -16.1871   -13.5920    13.9618 N.am    
  15 C15          -17.5483   -13.8097    13.4656 C.3     
  16 C16          -18.5431   -13.6435    14.6161 C.3     
  17 C17          -19.9476   -14.0105    14.1328 C.3     
  18 C18          -19.9861   -15.4929    13.7560 C.3     
  19 C19          -20.9578   -13.7419    15.2500 C.3     
  20 C20          -20.4286   -12.3043     9.8374 C.2     
  21 O21          -21.1764   -13.1067    10.3550 O.2     
  22 N22          -18.7989   -13.0753    11.4618 N.am    
  23 C23          -19.0186   -12.1510    10.3467 C.3     
  24 C24          -18.0324   -12.4670     9.2204 C.3     
  25 C25          -16.6057   -12.1914     9.6995 C.3     
  26 C26          -15.6195   -12.5074     8.5732 C.3     
  27 N27          -14.2534   -12.2436     9.0320 N.pl3   
  28 C28          -13.1910   -12.4564     8.1858 C.2     
  29 N29          -13.3991   -12.8930     6.9754 N.2     
  30 N30          -11.9090   -12.2088     8.6163 N.pl3   
  31 C31          -22.2932   -11.2631     6.8705 C.2     
  32 O32          -21.2922   -10.8671     6.3119 O.2     
  33 N33          -20.8587   -11.5497     8.8068 N.am    
  34 C34          -22.2294   -11.6988     8.3118 C.3     
  35 C35          -23.1712   -10.8311     9.1490 C.3     
  36 O36          -22.8472    -9.4528     8.9555 O.3     
  37 C37          -24.9286   -10.4546     4.4698 C.2     
  38 O38          -25.7925   -10.4941     5.3201 O.2     
  39 N39          -23.4626   -11.3136     6.2024 N.am    
  40 C40          -23.5245   -10.8900     4.8013 C.3     
  41 C41          -23.1260   -12.0583     3.8973 C.3     
  42 C42          -24.0883   -13.2267     4.1199 C.3     
  43 C43          -23.7675   -14.3475     3.1290 C.3     
  44 C44          -21.7005   -12.5004     4.2339 C.3     
  45 C45          -26.8265    -9.7510     1.4258 C.2     
  46 O46          -25.9424   -10.1723     0.7104 O.2     
  47 N47          -25.2244   -10.0212     3.2284 N.am    
  48 C48          -26.5894    -9.5979     2.9061 C.3     
  49 C49          -26.7761    -8.1323     3.3036 C.3     
  50 C50          -26.6584    -7.9970     4.8230 C.3     
  51 C51          -26.8451    -6.5313     5.2205 C.3     
  52 N52          -26.7325    -6.4018     6.6754 N.pl3   
  53 C53          -26.8661    -5.1685     7.2681 C.2     
  54 N54          -27.0930    -4.1145     6.5356 N.2     
  55 N55          -26.7604    -5.0469     8.6335 N.pl3   
  56 C56          -29.3365    -8.6180    -0.9782 C.2     
  57 O57          -29.8652    -7.8879    -0.1667 O.2     
  58 N58          -28.0211    -9.4198     0.8968 N.am    
  59 C59          -28.2516    -9.5687    -0.5422 C.3     
  60 C60          -28.6813   -11.0058    -0.8440 C.3     
  61 O61          -29.9455   -11.2638    -0.2299 O.3     
  62 C62          -31.4363    -8.1853    -3.9391 C.2     
  63 O63          -31.0639    -9.2323    -4.4248 O.2     
  64 N64          -29.7194    -8.5790    -2.2698 N.am    
  65 C65          -30.7741    -7.6548    -2.6936 C.3     
  66 C66          -30.1630    -6.2829    -2.9858 C.3     
  67 C67          -29.6002    -5.6894    -1.6928 C.3     
  68 C68          -28.8798    -4.3764    -2.0055 C.3     
  69 C69          -30.7452    -5.4222    -0.7137 C.3     
  70 C70          -33.6932    -6.8689    -6.4958 C.2     
  71 O71          -33.5975    -5.7351    -6.0759 O.2     
  72 N72          -32.4424    -7.4962    -4.5131 N.am    
  73 C73          -33.0861    -8.0119    -5.7238 C.3     
  74 C74          -34.1836    -9.0044    -5.3346 C.3     
  75 C75          -33.5524   -10.2244    -4.6608 C.3     
  76 C76          -34.6500   -11.2168    -4.2716 C.3     
  77 N77          -34.0456   -12.3850    -3.6264 N.pl3   
  78 C78          -34.8415   -13.4166    -3.1878 C.2     
  79 N79          -36.1339   -13.3553    -3.3461 N.2     
  80 N80          -34.2744   -14.5129    -2.5823 N.pl3   
  81 C81          -36.3800    -5.7904    -7.7234 C.2     
  82 O82          -36.7384    -6.4780    -6.7908 O.2     
  83 N83          -34.3424    -7.1065    -7.6527 N.am    
  84 C84          -35.0263    -6.0127    -8.3470 C.3     
  85 C85          -35.1981    -6.3744    -9.8236 C.3     
  86 C86          -33.8440    -6.4743   -10.4773 C.2     
  87 O87          -32.8382    -6.3574    -9.8096 O.2     
  88 N88          -33.7505    -6.6935   -11.8038 N.am    
  89 C89          -39.4777    -4.0863    -8.5452 C.2     
  90 O90          -39.1776    -4.0291    -9.7189 O.2     
  91 N91          -37.1926    -4.8275    -8.2020 N.am    
  92 C92          -38.4610    -4.5380    -7.5287 C.3     
  93 C93          -38.2482    -3.4313    -6.4939 C.3     
  94 C94          -37.5882    -2.2253    -7.1654 C.3     
  95 C95          -38.5635    -1.6016    -8.1658 C.3     
  96 C96          -37.3446    -3.9484    -5.3726 C.3     
  97 C97          -42.7506    -2.4387    -8.3927 C.2     
  98 O98          -42.9617    -2.6578    -7.2187 O.2     
  99 N99          -40.7205    -3.7460    -8.1501 N.am    
 100 C100         -41.6746    -3.2029    -9.1202 C.3     
 101 C101         -42.3086    -4.3503    -9.9091 C.3     
 102 C102         -43.2912    -3.7820   -10.9350 C.3     
 103 C103         -42.5215    -2.9909   -11.9946 C.3     
 104 C104         -43.0544    -5.2788    -8.9486 C.3     
 105 C105         -45.6077    -0.3607    -9.2189 C.2     
 106 O106         -45.6106    -0.7467   -10.3687 O.2     
 107 N107         -43.4783    -1.5118    -9.0468 N.am    
 108 C108         -44.4477    -0.6920    -8.3158 C.3     
 109 C109         -43.7753     0.6024    -7.8537 C.3     
 110 C110         -42.6942     0.2781    -6.8552 C.2     
 111 C111         -41.4014     0.6456    -6.9412 C.2     
 112 N112         -40.7731     0.1462    -5.8324 N.pl3   
 113 C113         -41.7045    -0.5096    -5.1069 C.2     
 114 N114         -42.8520    -0.4223    -5.7222 N.2     
 115 C115         -48.2018     2.0609    -9.5093 C.2     
 116 O116         -47.5660     2.8183    -8.8071 O.2     
 117 N117         -46.6420     0.3644    -8.7489 N.am    
 118 C118         -47.8112     0.6080    -9.5973 C.3     
 119 C119         -48.9762    -0.2629    -9.1226 C.3     
 120 C120         -48.6317    -1.7160    -9.3242 C.2     
 121 C121         -48.9170    -2.4620   -10.4031 C.2     
 122 N122         -48.4476    -3.7353   -10.2274 N.pl3   
 123 C123         -47.8332    -3.8424    -8.9999 C.ar    
 124 C124         -47.2001    -4.8865    -8.3338 C.ar    
 125 C125         -46.6687    -4.6760    -7.0800 C.ar    
 126 C126         -46.7584    -3.4310    -6.4731 C.ar    
 127 C127         -47.3765    -2.3914    -7.1093 C.ar    
 128 C128         -47.9163    -2.5807    -8.3826 C.ar    
 129 C129         -50.5266     4.1403    -8.9271 C.2     
 130 O130         -50.8139     3.2057    -8.2173 O.2     
 131 N131         -49.2575     2.5186   -10.2110 N.am    
 132 C132         -49.6372     3.9310   -10.1255 C.3     
 133 C133         -50.3890     4.3348   -11.3954 C.3     
 134 C134         -49.4612     4.2424   -12.5793 C.2     
 135 O135         -48.3118     3.8884   -12.4228 O.2     
 136 N136         -49.9087     4.5531   -13.8120 N.am    
 137 O137         -50.9997     5.3652    -8.6482 O.3     
 138 C138          -6.8275   -13.3733    13.8125 C.2     
 139 O139          -7.6382   -13.6232    14.6789 O.2     
 140 C140           5.1993    -9.0282    27.5116 C.3     
 141 C141           3.7963    -9.5058    27.1317 C.3     
 142 C142           3.6786    -9.5817    25.6081 C.3     
 143 C143           2.2756   -10.0593    25.2281 C.3     
 144 C144           2.1579   -10.1353    23.7045 C.3     
 145 C145           0.7549   -10.6129    23.3246 C.3     
 146 C146           0.6372   -10.6888    21.8010 C.3     
 147 C147          -0.7658   -11.1664    21.4210 C.3     
 148 C148          -0.8835   -11.2423    19.8974 C.3     
 149 C149          -2.2865   -11.7199    19.5175 C.3     
 150 C150          -2.4042   -11.7959    17.9939 C.3     
 151 C151          -3.8072   -12.2735    17.6139 C.3     
 152 C152          -3.9249   -12.3494    16.0903 C.3     
 153 C153          -5.3279   -12.8270    15.7104 C.3     
 154 C154          -5.4456   -12.9029    14.1868 C.3     
 155 H155         -13.7276   -16.4040    15.3423 H       
 156 H156         -12.6934   -15.3538    16.1126 H       
 157 H157         -13.9288   -13.4625    15.3562 H       
 158 H158         -13.1949   -15.4565    13.1666 H       
 159 H159         -13.5096   -13.7261    12.8931 H       
 160 H160         -11.6684   -13.1454    14.4492 H       
 161 H161         -11.3538   -14.8758    14.7227 H       
 162 H162         -10.8659   -15.1686    12.3093 H       
 163 H163         -11.1805   -13.4381    12.0357 H       
 164 H164          -9.2200   -13.6780    14.0545 H       
 165 H165          -8.0773   -14.0269    10.2399 H       
 166 H166          -6.4919   -13.3933    11.8246 H       
 167 H167         -15.7960   -12.7049    13.9317 H       
 168 H168         -17.6295   -14.8172    13.0577 H       
 169 H169         -18.2593   -14.2990    15.4394 H       
 170 H170         -18.5351   -12.6081    14.9566 H       
 171 H171         -20.2011   -13.4073    13.2610 H       
 172 H172         -21.0074   -15.7768    13.5021 H       
 173 H173         -19.3367   -15.6667    12.8979 H       
 174 H174         -19.6417   -16.0913    14.5994 H       
 175 H175         -20.9304   -12.6858    15.5185 H       
 176 H176         -21.9584   -14.0034    14.9057 H       
 177 H177         -20.7044   -14.3451    16.1218 H       
 178 H178         -19.3319   -13.8825    11.5349 H       
 179 H179         -18.8647   -11.1272    10.6877 H       
 180 H180         -18.1252   -13.5162     8.9399 H       
 181 H181         -18.2534   -11.8392     8.3572 H       
 182 H182         -16.5129   -11.1422     9.9800 H       
 183 H183         -16.3847   -12.8192    10.5627 H       
 184 H184         -15.7123   -13.5566     8.2928 H       
 185 H185         -15.8405   -11.8797     7.7100 H       
 186 H186         -14.0985   -11.9187     9.9327 H       
 187 H187         -12.6495   -13.0431     6.3784 H       
 188 H188         -11.7541   -11.8839     9.5171 H       
 189 H189         -11.1594   -12.3590     8.0193 H       
 190 H190         -20.2606   -10.9080     8.3929 H       
 191 H191         -22.5322   -12.7430     8.3894 H       
 192 H192         -24.2010   -11.0092     8.8392 H       
 193 H193         -23.0596   -11.0861    10.2029 H       
 194 H194         -23.4056    -8.8433     9.4573 H       
 195 H195         -24.2632   -11.6303     6.6492 H       
 196 H196         -22.8390   -10.0576     4.6427 H       
 197 H197         -23.1721   -11.7431     2.8548 H       
 198 H198         -23.9779   -13.5994     5.1382 H       
 199 H199         -25.1129   -12.8880     3.9661 H       
 200 H200         -24.4531   -15.1799     3.2876 H       
 201 H201         -23.8780   -13.9748     2.1107 H       
 202 H202         -22.7430   -14.6862     3.2828 H       
 203 H203         -21.0149   -11.6679     4.0753 H       
 204 H204         -21.6544   -12.8155     5.2763 H       
 205 H205         -21.4166   -13.3326     3.5898 H       
 206 H206         -24.5335    -9.9896     2.5483 H       
 207 H207         -27.3004   -10.2163     3.4538 H       
 208 H208         -26.0081    -7.5251     2.8242 H       
 209 H209         -27.7608    -7.7916     2.9836 H       
 210 H210         -27.4264    -8.6041     5.3024 H       
 211 H211         -25.6737    -8.3376     5.1430 H       
 212 H212         -26.0772    -5.9242     4.7412 H       
 213 H213         -27.8299    -6.1907     4.9006 H       
 214 H214         -26.5637    -7.1861     7.2206 H       
 215 H215         -27.1873    -3.2444     6.9538 H       
 216 H216         -26.5916    -5.8313     9.1786 H       
 217 H217         -26.8547    -4.1768     9.0517 H       
 218 H218         -28.7282    -9.0829     1.4690 H       
 219 H219         -27.3322    -9.3433    -1.0827 H       
 220 H220         -28.7668   -11.1407    -1.9222 H       
 221 H221         -27.9375   -11.6979    -0.4490 H       
 222 H222         -30.2803   -12.1585    -0.3799 H       
 223 H223         -29.2966    -9.1629    -2.9189 H       
 224 H224         -31.5153    -7.5607    -1.9000 H       
 225 H225         -29.3605    -6.3906    -3.7156 H       
 226 H226         -30.9310    -5.6207    -3.3855 H       
 227 H227         -28.8969    -6.3923    -1.2463 H       
 228 H228         -29.5831    -3.6734    -2.4520 H       
 229 H229         -28.4789    -3.9535    -1.0844 H       
 230 H230         -28.0641    -4.5667    -2.7031 H       
 231 H231         -31.4485    -4.7193    -1.1602 H       
 232 H232         -31.2584    -6.3576    -0.4909 H       
 233 H233         -30.3443    -4.9994     0.2075 H       
 234 H234         -32.7402    -6.6588    -4.1245 H       
 235 H235         -32.3441    -8.5154    -6.3435 H       
 236 H236         -34.8776    -8.5260    -4.6435 H       
 237 H237         -34.7212    -9.3206    -6.2286 H       
 238 H238         -32.8585   -10.7027    -5.3519 H       
 239 H239         -33.0149    -9.9082    -3.7668 H       
 240 H240         -35.3439   -10.7385    -3.5805 H       
 241 H241         -35.1875   -11.5330    -5.1656 H       
 242 H242         -33.0838   -12.4306    -3.5086 H       
 243 H243         -36.6955   -14.0832    -3.0366 H       
 244 H244         -33.3126   -14.5585    -2.4645 H       
 245 H245         -34.8360   -15.2408    -2.2729 H       
 246 H246         -34.3569    -8.0019    -8.0256 H       
 247 H247         -34.4334    -5.1019    -8.2626 H       
 248 H248         -35.7127    -7.3318    -9.9057 H       
 249 H249         -35.7855    -5.6024   -10.3208 H       
 250 H250         -34.5549    -6.7870   -12.3378 H       
 251 H251         -32.8789    -6.7578   -12.2245 H       
 252 H252         -36.9375    -4.3263    -8.9923 H       
 253 H253         -38.8211    -5.4376    -7.0296 H       
 254 H254         -39.2103    -3.1336    -6.0771 H       
 255 H255         -37.3233    -1.4875    -6.4080 H       
 256 H256         -36.6881    -2.5482    -7.6886 H       
 257 H257         -38.1996    -0.6180    -8.4630 H       
 258 H258         -38.6408    -2.2413    -9.0449 H       
 259 H259         -39.5448    -1.5011    -7.7021 H       
 260 H260         -36.3513    -4.1535    -5.7719 H       
 261 H261         -37.2724    -3.1954    -4.5878 H       
 262 H262         -37.7665    -4.8646    -4.9595 H       
 263 H263         -40.9832    -3.8606    -7.2234 H       
 264 H264         -41.1545    -2.5342    -9.8061 H       
 265 H265         -41.5290    -4.9111   -10.4247 H       
 266 H266         -43.8309    -4.5996   -11.4129 H       
 267 H267         -43.9998    -3.1231   -10.4332 H       
 268 H268         -42.0693    -2.1122   -11.5348 H       
 269 H269         -41.7405    -3.6201   -12.4216 H       
 270 H270         -43.2064    -2.6770   -12.7823 H       
 271 H271         -43.8929    -4.7433    -8.5033 H       
 272 H272         -43.4260    -6.1451    -9.4958 H       
 273 H273         -42.3756    -5.6094    -8.1624 H       
 274 H274         -43.3602    -1.3876   -10.0015 H       
 275 H275         -44.8089    -1.2436    -7.4479 H       
 276 H276         -43.3363     1.1104    -8.7124 H       
 277 H277         -44.5172     1.2510    -7.3880 H       
 278 H278         -40.9476     1.2230    -7.7330 H       
 279 H279         -39.8343     0.2448    -5.6093 H       
 280 H280         -41.5295    -1.0185    -4.1705 H       
 281 H281         -46.6122     0.7250    -7.8490 H       
 282 H282         -47.5688     0.3589   -10.6304 H       
 283 H283         -49.1614    -0.0767    -8.0647 H       
 284 H284         -49.8700    -0.0184    -9.6965 H       
 285 H285         -49.4399    -2.1096   -11.2799 H       
 286 H286         -48.5348    -4.4552   -10.8716 H       
 287 H287         -47.1256    -5.8589    -8.7976 H       
 288 H288         -46.1778    -5.4880    -6.5643 H       
 289 H289         -46.3366    -3.2828    -5.4900 H       
 290 H290         -47.4428    -1.4256    -6.6307 H       
 291 H291         -49.7660     1.9129   -10.7727 H       
 292 H292         -48.7408     4.5427   -10.0239 H       
 293 H293         -51.2361     3.6653   -11.5445 H       
 294 H294         -50.7486     5.3588   -11.2946 H       
 295 H295         -50.8280     4.8362   -13.9372 H       
 296 H296         -49.3115     4.4936   -14.5741 H       
 297 H297         -51.5663     5.4501    -7.8692 H       
 298 H298           5.2831    -8.9741    28.5971 H       
 299 H299           5.9389    -9.7291    27.1246 H       
 300 H300           5.3753    -8.0412    27.0840 H       
 301 H301           3.6202   -10.4928    27.5593 H       
 302 H302           3.0566    -8.8049    27.5187 H       
 303 H303           3.8546    -8.5947    25.1804 H       
 304 H304           4.4182   -10.2826    25.2210 H       
 305 H305           2.0995   -11.0464    25.6558 H       
 306 H306           1.5359    -9.3585    25.6152 H       
 307 H307           2.3339    -9.1482    23.2769 H       
 308 H308           2.8975   -10.8361    23.3175 H       
 309 H309           0.5788   -11.5999    23.7522 H       
 310 H310           0.0152    -9.9120    23.7116 H       
 311 H311           0.8132    -9.7018    21.3733 H       
 312 H312           1.3768   -11.3897    21.4139 H       
 313 H313          -0.9419   -12.1534    21.8487 H       
 314 H314          -1.5054   -10.4655    21.8081 H       
 315 H315          -0.7074   -10.2553    19.4698 H       
 316 H316          -0.1439   -11.9432    19.5104 H       
 317 H317          -2.4625   -12.7070    19.9451 H       
 318 H318          -3.0261   -11.0191    19.9045 H       
 319 H319          -2.2281   -10.8088    17.5662 H       
 320 H320          -1.6645   -12.4967    17.6068 H       
 321 H321          -3.9832   -13.2605    18.0416 H       
 322 H322          -4.5468   -11.5726    18.0010 H       
 323 H323          -3.7488   -11.3624    15.6627 H       
 324 H324          -3.1852   -13.0503    15.7033 H       
 325 H325          -5.5039   -13.8140    16.1380 H       
 326 H326          -6.0675   -12.1261    16.0974 H       
 327 H327          -4.7059   -13.6038    13.7997 H       
 328 H328          -5.2695   -11.9159    13.7591 H       
@<TRIPOS>BOND
   1    1    2 2
   2    1    4 1
   3    1   14 am
   4    3    4 1
   5    3  155 1
   6    3  156 1
   7    4    5 1
   8    4  157 1
   9    5    6 1
  10    5  158 1
  11    5  159 1
  12    6    7 1
  13    6  160 1
  14    6  161 1
  15    7    8 1
  16    7  162 1
  17    7  163 1
  18    8    9 1
  19    8  164 1
  20    9   10 2
  21    9   11 1
  22   10  165 1
  23   11  138 am
  24   11  166 1
  25   12   13 2
  26   12   15 1
  27   12   22 am
  28   14   15 1
  29   14  167 1
  30   15   16 1
  31   15  168 1
  32   16   17 1
  33   16  169 1
  34   16  170 1
  35   17   18 1
  36   17   19 1
  37   17  171 1
  38   18  172 1
  39   18  173 1
  40   18  174 1
  41   19  175 1
  42   19  176 1
  43   19  177 1
  44   20   21 2
  45   20   23 1
  46   20   33 am
  47   22   23 1
  48   22  178 1
  49   23   24 1
  50   23  179 1
  51   24   25 1
  52   24  180 1
  53   24  181 1
  54   25   26 1
  55   25  182 1
  56   25  183 1
  57   26   27 1
  58   26  184 1
  59   26  185 1
  60   27   28 1
  61   27  186 1
  62   28   29 2
  63   28   30 1
  64   29  187 1
  65   30  188 1
  66   30  189 1
  67   31   32 2
  68   31   34 1
  69   31   39 am
  70   33   34 1
  71   33  190 1
  72   34   35 1
  73   34  191 1
  74   35   36 1
  75   35  192 1
  76   35  193 1
  77   36  194 1
  78   37   38 2
  79   37   40 1
  80   37   47 am
  81   39   40 1
  82   39  195 1
  83   40   41 1
  84   40  196 1
  85   41   42 1
  86   41   44 1
  87   41  197 1
  88   42   43 1
  89   42  198 1
  90   42  199 1
  91   43  200 1
  92   43  201 1
  93   43  202 1
  94   44  203 1
  95   44  204 1
  96   44  205 1
  97   45   46 2
  98   45   48 1
  99   45   58 am
 100   47   48 1
 101   47  206 1
 102   48   49 1
 103   48  207 1
 104   49   50 1
 105   49  208 1
 106   49  209 1
 107   50   51 1
 108   50  210 1
 109   50  211 1
 110   51   52 1
 111   51  212 1
 112   51  213 1
 113   52   53 1
 114   52  214 1
 115   53   54 2
 116   53   55 1
 117   54  215 1
 118   55  216 1
 119   55  217 1
 120   56   57 2
 121   56   59 1
 122   56   64 am
 123   58   59 1
 124   58  218 1
 125   59   60 1
 126   59  219 1
 127   60   61 1
 128   60  220 1
 129   60  221 1
 130   61  222 1
 131   62   63 2
 132   62   65 1
 133   62   72 am
 134   64   65 1
 135   64  223 1
 136   65   66 1
 137   65  224 1
 138   66   67 1
 139   66  225 1
 140   66  226 1
 141   67   68 1
 142   67   69 1
 143   67  227 1
 144   68  228 1
 145   68  229 1
 146   68  230 1
 147   69  231 1
 148   69  232 1
 149   69  233 1
 150   70   71 2
 151   70   73 1
 152   70   83 am
 153   72   73 1
 154   72  234 1
 155   73   74 1
 156   73  235 1
 157   74   75 1
 158   74  236 1
 159   74  237 1
 160   75   76 1
 161   75  238 1
 162   75  239 1
 163   76   77 1
 164   76  240 1
 165   76  241 1
 166   77   78 1
 167   77  242 1
 168   78   79 2
 169   78   80 1
 170   79  243 1
 171   80  244 1
 172   80  245 1
 173   81   82 2
 174   81   84 1
 175   81   91 am
 176   83   84 1
 177   83  246 1
 178   84   85 1
 179   84  247 1
 180   85   86 1
 181   85  248 1
 182   85  249 1
 183   86   87 2
 184   86   88 am
 185   88  250 1
 186   88  251 1
 187   89   90 2
 188   89   92 1
 189   89   99 am
 190   91   92 1
 191   91  252 1
 192   92   93 1
 193   92  253 1
 194   93   94 1
 195   93   96 1
 196   93  254 1
 197   94   95 1
 198   94  255 1
 199   94  256 1
 200   95  257 1
 201   95  258 1
 202   95  259 1
 203   96  260 1
 204   96  261 1
 205   96  262 1
 206   97   98 2
 207   97  100 1
 208   97  107 am
 209   99  100 1
 210   99  263 1
 211  100  101 1
 212  100  264 1
 213  101  102 1
 214  101  104 1
 215  101  265 1
 216  102  103 1
 217  102  266 1
 218  102  267 1
 219  103  268 1
 220  103  269 1
 221  103  270 1
 222  104  271 1
 223  104  272 1
 224  104  273 1
 225  105  106 2
 226  105  108 1
 227  105  117 am
 228  107  108 1
 229  107  274 1
 230  108  109 1
 231  108  275 1
 232  109  110 1
 233  109  276 1
 234  109  277 1
 235  110  111 2
 236  110  114 1
 237  111  112 1
 238  111  278 1
 239  112  113 1
 240  112  279 1
 241  113  114 2
 242  113  280 1
 243  115  116 2
 244  115  118 1
 245  115  131 am
 246  117  118 1
 247  117  281 1
 248  118  119 1
 249  118  282 1
 250  119  120 1
 251  119  283 1
 252  119  284 1
 253  120  121 2
 254  120  128 1
 255  121  122 1
 256  121  285 1
 257  122  123 1
 258  122  286 1
 259  123  124 ar
 260  123  128 ar
 261  124  125 ar
 262  124  287 1
 263  125  126 ar
 264  125  288 1
 265  126  127 ar
 266  126  289 1
 267  127  128 ar
 268  127  290 1
 269  129  130 2
 270  129  132 1
 271  129  137 1
 272  131  132 1
 273  131  291 1
 274  132  133 1
 275  132  292 1
 276  133  134 1
 277  133  293 1
 278  133  294 1
 279  134  135 2
 280  134  136 am
 281  136  295 1
 282  136  296 1
 283  137  297 1
 284  138  139 2
 285  138  154 1
 286  140  141 1
 287  140  298 1
 288  140  299 1
 289  140  300 1
 290  141  142 1
 291  141  301 1
 292  141  302 1
 293  142  143 1
 294  142  303 1
 295  142  304 1
 296  143  144 1
 297  143  305 1
 298  143  306 1
 299  144  145 1
 300  144  307 1
 301  144  308 1
 302  145  146 1
 303  145  309 1
 304  145  310 1
 305  146  147 1
 306  146  311 1
 307  146  312 1
 308  147  148 1
 309  147  313 1
 310  147  314 1
 311  148  149 1
 312  148  315 1
 313  148  316 1
 314  149  150 1
 315  149  317 1
 316  149  318 1
 317  150  151 1
 318  150  319 1
 319  150  320 1
 320  151  152 1
 321  151  321 1
 322  151  322 1
 323  152  153 1
 324  152  323 1
 325  152  324 1
 326  153  154 1
 327  153  325 1
 328  153  326 1
 329  154  327 1
 330  154  328 1

#	End of record

