#	Name: ASD01810631
#	Creating user name:	WinNT
#	Creation time:	15. 06. 2019 19:25

#	Modifying user name:	WinNT
#	Modification time:	15. 06. 2019 19:25

#	Program:	/corina/corina34_cracker 3.40 0067  02.08.2006

@<TRIPOS>MOLECULE
ASD01810631
  59   62    0    0    0
SMALL
NO_CHARGES


@<TRIPOS>ATOM
   1 C1             0.0938     1.0899     1.1856 C.2     
   2 N2             0.0820    -0.0321     0.4391 N.am    
   3 O3             1.1407     1.5050     1.6421 O.2     
   4 O4            -1.0535     1.7541     1.4211 O.3     
   5 C5             1.2862    -0.6613     0.1021 C.ar    
   6 C6             1.3334    -2.0436    -0.0348 C.ar    
   7 C7             2.5199    -2.6696    -0.3675 C.ar    
   8 C8             3.6659    -1.9264    -0.5655 C.ar    
   9 C9             3.6289    -0.5377    -0.4304 C.ar    
  10 C10            2.4299     0.0946    -0.1006 C.ar    
  11 C11            0.0869    -2.8626     0.1806 C.3     
  12 C12            4.8551     0.2611    -0.6415 C.2     
  13 O13            4.8148     1.2688    -1.3201 O.2     
  14 N14            6.0176    -0.1281    -0.0815 N.am    
  15 C15            7.2218     0.7052    -0.2005 C.3     
  16 C16            7.7826     0.9643     1.2014 C.3     
  17 C17            8.0109    -0.3726     1.9103 C.3     
  18 C18            6.6779    -1.1110     2.0521 C.3     
  19 C19            6.1033    -1.3909     0.6647 C.3     
  20 F20            8.8980    -1.1522     1.1603 F       
  21 C21            8.5945    -0.1229     3.2771 C.ar    
  22 C22            9.1723    -1.1653     3.9801 C.ar    
  23 C23            9.7083    -0.9438     5.2317 C.ar    
  24 C24            9.6673     0.3360     5.7887 C.ar    
  25 C25            9.0831     1.3834     5.0735 C.ar    
  26 C26            8.5551     1.1488     3.8208 C.ar    
  27 C27           10.2213     0.5732     7.0877 C.1     
  28 N28           10.6609     0.7613     8.1181 N.1     
  29 O29           -1.5612     5.2563     1.8890 O.3     
  30 C30           -0.7560     4.2022     1.3486 C.3     
  31 C31           -0.9656     2.9545     2.2332 C.3     
  32 C32           -2.3262     3.2601     2.9170 C.3     
  33 C33           -2.2391     4.7995     3.0703 C.3     
  34 H34           -0.7610    -0.4037     0.1354 H       
  35 H35            2.5504    -3.7441    -0.4725 H       
  36 H36            4.5912    -2.4193    -0.8246 H       
  37 H37            2.3942     1.1692     0.0010 H       
  38 H38           -0.4457    -2.9692    -0.7644 H       
  39 H39            0.3603    -3.8484     0.5568 H       
  40 H40           -0.5557    -2.3625     0.9053 H       
  41 H41            7.9677     0.1858    -0.8021 H       
  42 H42            6.9648     1.6536    -0.6722 H       
  43 H43            8.7285     1.5000     1.1216 H       
  44 H44            7.0724     1.5623     1.7725 H       
  45 H45            6.8376    -2.0524     2.5778 H       
  46 H46            5.9781    -0.4935     2.6152 H       
  47 H47            5.1084    -1.8251     0.7635 H       
  48 H48            6.7561    -2.0848     0.1350 H       
  49 H49            9.2033    -2.1546     3.5480 H       
  50 H50           10.1584    -1.7584     5.7796 H       
  51 H51            9.0480     2.3756     5.4985 H       
  52 H52            8.1066     1.9588     3.2648 H       
  53 H53           -1.0663     3.9869     0.3261 H       
  54 H54            0.2941     4.4941     1.3638 H       
  55 H55           -0.1706     2.8659     2.9736 H       
  56 H56           -3.1606     2.9757     2.2759 H       
  57 H57           -2.3958     2.7718     3.8890 H       
  58 H58           -1.6655     5.0592     3.9600 H       
  59 H59           -3.2384     5.2315     3.1239 H       
@<TRIPOS>BOND
   1    1    2 am
   2    1    3 2
   3    1    4 1
   4    2    5 1
   5    2   34 1
   6    4   31 1
   7    5    6 ar
   8    5   10 ar
   9    6    7 ar
  10    6   11 1
  11    7    8 ar
  12    7   35 1
  13    8    9 ar
  14    8   36 1
  15    9   10 ar
  16    9   12 1
  17   10   37 1
  18   11   38 1
  19   11   39 1
  20   11   40 1
  21   12   13 2
  22   12   14 am
  23   14   15 1
  24   14   19 1
  25   15   16 1
  26   15   41 1
  27   15   42 1
  28   16   17 1
  29   16   43 1
  30   16   44 1
  31   17   18 1
  32   17   20 1
  33   17   21 1
  34   18   19 1
  35   18   45 1
  36   18   46 1
  37   19   47 1
  38   19   48 1
  39   21   22 ar
  40   21   26 ar
  41   22   23 ar
  42   22   49 1
  43   23   24 ar
  44   23   50 1
  45   24   25 ar
  46   24   27 1
  47   25   26 ar
  48   25   51 1
  49   26   52 1
  50   27   28 3
  51   29   30 1
  52   29   33 1
  53   30   31 1
  54   30   53 1
  55   30   54 1
  56   31   32 1
  57   31   55 1
  58   32   33 1
  59   32   56 1
  60   32   57 1
  61   33   58 1
  62   33   59 1

#	End of record

