#	Name: ASD01411062
#	Creating user name:	WinNT
#	Creation time:	15. 06. 2019 19:19

#	Modifying user name:	WinNT
#	Modification time:	15. 06. 2019 19:19

#	Program:	/corina/corina34_cracker 3.40 0067  02.08.2006

@<TRIPOS>MOLECULE
ASD01411062
  51   54    0    0    0
SMALL
NO_CHARGES


@<TRIPOS>ATOM
   1 C1             1.2762     1.3983    -1.2000 C.ar    
   2 C2             1.2928     0.0174    -1.2046 C.ar    
   3 C3             1.1769     2.0866     0.0020 C.ar    
   4 C4             1.2102    -0.6808    -0.0139 C.ar    
   5 C5             1.0945     1.3842     1.1963 C.ar    
   6 N6             1.1604     3.4878     0.0092 N.am    
   7 C7             1.1106     0.0017     1.1858 C.ar    
   8 C8            -0.0215     4.1359    -0.0735 C.2     
   9 C9             2.3190     4.1585     0.1038 C.2     
  10 Cl10           1.0065    -0.8784     2.6785 Cl      
  11 C11           -0.0133     5.6066    -0.0641 C.ar    
  12 O12           -1.0666     3.5188    -0.1543 O.2     
  13 N13            2.3840     5.5012     0.1174 N.am    
  14 O14            3.3538     3.5249     0.1807 O.2     
  15 C15            1.2284     6.2647     0.0309 C.ar    
  16 C16           -1.1930     6.3460    -0.1466 C.ar    
  17 C17            1.2706     7.6467     0.0419 C.ar    
  18 C18           -1.1390     7.7112    -0.1349 C.ar    
  19 C19            0.0865     8.3698    -0.0410 C.ar    
  20 N20            0.1242     9.7599    -0.0308 N.pl3   
  21 C21           -1.1207    10.5272    -0.1185 C.3     
  22 C22            3.6860     6.1641     0.2241 C.3     
  23 C23           -0.9177    11.9061     0.5154 C.3     
  24 C24           -2.2021    12.7247     0.3666 C.3     
  25 N25           -2.5327    12.8646    -1.0573 N.3     
  26 C26           -2.7785    11.5559    -1.6764 C.3     
  27 C27           -1.5113    10.7025    -1.5886 C.3     
  28 C28           -3.6818    13.7602    -1.2455 C.3     
  29 H29            1.3450     1.9426    -2.1303 H       
  30 H30            1.3700    -0.5179    -2.1394 H       
  31 H31            1.2229    -1.7607    -0.0202 H       
  32 H32            1.0172     1.9168     2.1326 H       
  33 H33           -2.1452     5.8416    -0.2198 H       
  34 H34            2.2175     8.1610     0.1148 H       
  35 H35           -2.0521     8.2844    -0.1988 H       
  36 H36            0.9749    10.2216     0.0344 H       
  37 H37           -1.9134     9.9968     0.4092 H       
  38 H38            4.4730     5.4122     0.2812 H       
  39 H39            3.8467     6.7924    -0.6520 H       
  40 H40            3.7071     6.7811     1.1224 H       
  41 H41           -0.6811    11.7892     1.5730 H       
  42 H42           -0.0982    12.4204     0.0133 H       
  43 H43           -3.0181    12.2168     0.8807 H       
  44 H44           -2.0562    13.7122     0.8043 H       
  45 H45           -3.5918    11.0535    -1.1528 H       
  46 H46           -3.0512    11.6946    -2.7226 H       
  47 H47           -0.7011    11.1978    -2.1238 H       
  48 H48           -1.6988     9.7256    -2.0343 H       
  49 H49           -3.4445    14.7451    -0.8433 H       
  50 H50           -3.9052    13.8461    -2.3089 H       
  51 H51           -4.5483    13.3539    -0.7238 H       
@<TRIPOS>BOND
   1    1    2 ar
   2    1    3 ar
   3    1   29 1
   4    2    4 ar
   5    2   30 1
   6    3    5 ar
   7    3    6 1
   8    4    7 ar
   9    4   31 1
  10    5    7 ar
  11    5   32 1
  12    6    9 am
  13    6    8 am
  14    7   10 1
  15    8   11 1
  16    8   12 2
  17    9   13 am
  18    9   14 2
  19   11   15 ar
  20   11   16 ar
  21   13   22 1
  22   13   15 1
  23   15   17 ar
  24   16   18 ar
  25   16   33 1
  26   17   19 ar
  27   17   34 1
  28   18   19 ar
  29   18   35 1
  30   19   20 1
  31   20   21 1
  32   20   36 1
  33   21   23 1
  34   21   27 1
  35   21   37 1
  36   22   38 1
  37   22   39 1
  38   22   40 1
  39   23   24 1
  40   23   41 1
  41   23   42 1
  42   24   25 1
  43   24   43 1
  44   24   44 1
  45   25   26 1
  46   25   28 1
  47   26   27 1
  48   26   45 1
  49   26   46 1
  50   27   47 1
  51   27   48 1
  52   28   49 1
  53   28   50 1
  54   28   51 1

#	End of record

