#	Name: ASD02198064
#	Creating user name:	WinNT
#	Creation time:	15. 06. 2019 20:18

#	Modifying user name:	WinNT
#	Modification time:	15. 06. 2019 20:18

#	Program:	/corina/corina34_cracker 3.40 0067  02.08.2006

@<TRIPOS>MOLECULE
ASD02198064
  52   55    0    0    0
SMALL
NO_CHARGES


@<TRIPOS>ATOM
   1 C1             0.0484     1.7443    -0.1381 C.2     
   2 C2             0.1602     0.3703    -0.1475 C.2     
   3 C3            -0.9598    -0.5052     0.0253 C.1     
   4 S4             1.5691     2.4791    -0.3714 S.3     
   5 C5             2.3768     0.9237    -0.4848 C.2     
   6 C6             1.4615    -0.0897    -0.3413 C.2     
   7 C7             3.7595     0.7426    -0.6923 C.2     
   8 C8             4.6218     1.9068    -0.9806 C.2     
   9 O9             4.2435    -0.3752    -0.6338 O.2     
  10 N10            1.7977    -1.4346    -0.3851 N.pl3   
  11 N11           -1.1328     2.4305     0.0310 N.pl3   
  12 N12           -1.8482    -1.1997     0.1624 N.1     
  13 C13            4.1925     3.2358    -1.1911 C.2     
  14 N14            5.2468     3.9717    -1.4155 N.2     
  15 N15            6.3857     3.1604    -1.3602 N.pl3   
  16 C16            5.9970     1.8997    -1.0884 C.2     
  17 C17            7.7068     3.5879    -1.5502 C.ar    
  18 C18            7.9874     4.5952    -2.4637 C.ar    
  19 C19            6.8976     0.7007    -0.9393 C.3     
  20 C20            8.7370     3.0090    -0.8212 C.ar    
  21 C21           10.0378     3.4328    -1.0103 C.ar    
  22 C22           10.3147     4.4329    -1.9242 C.ar    
  23 C23            9.2903     5.0147    -2.6483 C.ar    
  24 C24           -1.1200     3.8218     0.1617 C.ar    
  25 C25           -0.0361     4.4552     0.7561 C.ar    
  26 C26           -0.0268     5.8304     0.8837 C.ar    
  27 C27           -1.0948     6.5766     0.4207 C.ar    
  28 C28           -2.1758     5.9491    -0.1717 C.ar    
  29 C29           -2.1890     4.5751    -0.3077 C.ar    
  30 C30           -3.3670     3.8923    -0.9537 C.3     
  31 C31           -4.3442     3.4288     0.1285 C.3     
  32 H32            2.7205    -1.6996    -0.5232 H       
  33 H33            1.1100    -2.1102    -0.2777 H       
  34 H34           -1.9740     1.9484     0.0594 H       
  35 H35            3.1699     3.5826    -1.1703 H       
  36 H36            7.1878     5.0500    -3.0295 H       
  37 H37            7.2014     0.6018     0.1028 H       
  38 H38            6.3619    -0.1968    -1.2483 H       
  39 H39            7.7810     0.8299    -1.5646 H       
  40 H40            8.5212     2.2283    -0.1067 H       
  41 H41           10.8395     2.9829    -0.4435 H       
  42 H42           11.3326     4.7631    -2.0698 H       
  43 H43            9.5097     5.7956    -3.3614 H       
  44 H44            0.7983     3.8730     1.1183 H       
  45 H45            0.8155     6.3235     1.3461 H       
  46 H46           -1.0851     7.6518     0.5220 H       
  47 H47           -3.0085     6.5349    -0.5320 H       
  48 H48           -3.8700     4.5909    -1.6224 H       
  49 H49           -3.0198     3.0302    -1.5232 H       
  50 H50           -5.1962     2.9349    -0.3388 H       
  51 H51           -3.8412     2.7302     0.7971 H       
  52 H52           -4.6914     4.2909     0.6979 H       
@<TRIPOS>BOND
   1    1    2 2
   2    1    4 1
   3    1   11 1
   4    2    3 1
   5    2    6 1
   6    3   12 3
   7    4    5 1
   8    5    6 2
   9    5    7 1
  10    6   10 1
  11    7    8 1
  12    7    9 2
  13    8   13 1
  14    8   16 2
  15   10   32 1
  16   10   33 1
  17   11   24 1
  18   11   34 1
  19   13   14 2
  20   13   35 1
  21   14   15 1
  22   15   16 1
  23   15   17 1
  24   16   19 1
  25   17   18 ar
  26   17   20 ar
  27   18   23 ar
  28   18   36 1
  29   19   37 1
  30   19   38 1
  31   19   39 1
  32   20   21 ar
  33   20   40 1
  34   21   22 ar
  35   21   41 1
  36   22   23 ar
  37   22   42 1
  38   23   43 1
  39   24   25 ar
  40   24   29 ar
  41   25   26 ar
  42   25   44 1
  43   26   27 ar
  44   26   45 1
  45   27   28 ar
  46   27   46 1
  47   28   29 ar
  48   28   47 1
  49   29   30 1
  50   30   31 1
  51   30   48 1
  52   30   49 1
  53   31   50 1
  54   31   51 1
  55   31   52 1

#	End of record

