#	Name: ASD05730003
#	Creating user name:	WinNT
#	Creation time:	15. 06. 2019 21:02

#	Modifying user name:	WinNT
#	Modification time:	15. 06. 2019 21:02

#	Program:	/corina/corina34_cracker 3.40 0067  02.08.2006

@<TRIPOS>MOLECULE
ASD05730003
  55   59    0    0    0
SMALL
NO_CHARGES


@<TRIPOS>ATOM
   1 N1             0.1272     1.3533    -0.5859 N.ar    
   2 C2             0.2256     0.1525    -0.0260 C.ar    
   3 N3             1.2774    -0.6328    -0.2059 N.ar    
   4 C4             2.2884    -0.2360    -0.9680 C.ar    
   5 C5             2.2187     1.0351    -1.5797 C.ar    
   6 C6             1.0869     1.8281    -1.3595 C.ar    
   7 N7             3.3902    -1.0257    -1.1727 N.am    
   8 C8             4.4064    -0.6074    -1.9481 C.2     
   9 C9             4.3882     0.6516    -2.5816 C.2     
  10 C10            3.3249     1.4821    -2.4208 C.2     
  11 N11           -0.8077    -0.2940     0.7744 N.pl3   
  12 C12           -1.8777     0.5580     1.0770 C.ar    
  13 C13           -3.1594     0.0413     1.2135 C.ar    
  14 C14           -4.2140     0.8809     1.5121 C.ar    
  15 C15           -3.9929     2.2422     1.6760 C.ar    
  16 C16           -2.7110     2.7588     1.5395 C.ar    
  17 C17           -1.6557     1.9183     1.2460 C.ar    
  18 N18           -5.0618     3.0933     1.9782 N.3     
  19 O19            5.3697    -1.3370    -2.1071 O.2     
  20 C20            3.4620    -2.3438    -0.5374 C.3     
  21 C21           -4.6068     4.4846     2.1078 C.3     
  22 C22           -5.8136     5.3919     2.3589 C.3     
  23 N23           -6.5085     4.9525     3.5769 N.3     
  24 C24           -6.9635     3.5612     3.4473 C.3     
  25 C25           -5.7568     2.6539     3.1963 C.3     
  26 C26            3.2406    -2.3073     0.9840 C.3     
  27 C27            2.4183    -3.5959     0.8161 C.3     
  28 C28            2.1522    -3.1443    -0.6296 C.3     
  29 C29           -7.6306     5.8459     3.8942 C.3     
  30 H30            1.0000     2.8050    -1.8117 H       
  31 H31            5.2213     0.9565    -3.1975 H       
  32 H32            3.2997     2.4491    -2.9012 H       
  33 H33           -0.7925    -1.1975     1.1271 H       
  34 H34           -3.3314    -1.0172     1.0857 H       
  35 H35           -5.2109     0.4792     1.6180 H       
  36 H36           -2.5391     3.8174     1.6665 H       
  37 H37           -0.6588     2.3200     1.1398 H       
  38 H38            4.3436    -2.9106    -0.8368 H       
  39 H39           -3.9122     4.5637     2.9441 H       
  40 H40           -4.1066     4.7907     1.1890 H       
  41 H41           -5.4754     6.4205     2.4841 H       
  42 H42           -6.4951     5.3336     1.5102 H       
  43 H43           -7.4637     3.2551     4.3661 H       
  44 H44           -7.6582     3.4821     2.6110 H       
  45 H45           -6.0950     1.6253     3.0710 H       
  46 H46           -5.0752     2.7121     4.0449 H       
  47 H47            4.1546    -2.4448     1.5616 H       
  48 H48            2.6513    -1.4538     1.3190 H       
  49 H49            3.0137    -4.5061     0.8866 H       
  50 H50            1.5223    -3.6259     1.4361 H       
  51 H51            1.2653    -2.5196    -0.7357 H       
  52 H52            2.1875    -3.9575    -1.3546 H       
  53 H53           -8.3406     5.8453     3.0671 H       
  54 H54           -8.1274     5.4979     4.7998 H       
  55 H55           -7.2564     6.8576     4.0510 H       
@<TRIPOS>BOND
   1    1    2 ar
   2    1    6 ar
   3    2    3 ar
   4    2   11 1
   5    3    4 ar
   6    4    5 ar
   7    4    7 1
   8    5    6 ar
   9    5   10 1
  10    6   30 1
  11    7    8 am
  12    7   20 1
  13    8    9 1
  14    8   19 2
  15    9   10 2
  16    9   31 1
  17   10   32 1
  18   11   12 1
  19   11   33 1
  20   12   13 ar
  21   12   17 ar
  22   13   14 ar
  23   13   34 1
  24   14   15 ar
  25   14   35 1
  26   15   16 ar
  27   15   18 1
  28   16   17 ar
  29   16   36 1
  30   17   37 1
  31   18   21 1
  32   18   25 1
  33   20   26 1
  34   20   28 1
  35   20   38 1
  36   21   22 1
  37   21   39 1
  38   21   40 1
  39   22   23 1
  40   22   41 1
  41   22   42 1
  42   23   24 1
  43   23   29 1
  44   24   25 1
  45   24   43 1
  46   24   44 1
  47   25   45 1
  48   25   46 1
  49   26   27 1
  50   26   47 1
  51   26   48 1
  52   27   28 1
  53   27   49 1
  54   27   50 1
  55   28   51 1
  56   28   52 1
  57   29   53 1
  58   29   54 1
  59   29   55 1

#	End of record

