#	Name: ASD05740125
#	Creating user name:	WinNT
#	Creation time:	15. 06. 2019 21:02

#	Modifying user name:	WinNT
#	Modification time:	15. 06. 2019 21:02

#	Program:	/corina/corina34_cracker 3.40 0067  02.08.2006

@<TRIPOS>MOLECULE
ASD05740125
  44   45    0    0    0
SMALL
NO_CHARGES


@<TRIPOS>ATOM
   1 S1            -0.0257     2.0457     0.0133 S.3     
   2 C2            -3.2368    -1.1170    -1.6524 C.2     
   3 C3            -3.9439    -4.1357    -3.2255 C.3     
   4 C4            -3.1136    -3.9887    -5.6082 C.2     
   5 C5            -2.9560    -3.2916    -6.7969 C.2     
   6 C6            -3.7686    -3.3842    -4.5199 C.2     
   7 C7            -4.2445    -2.1106    -4.6468 C.2     
   8 C8            -4.0697    -1.4327    -5.8604 C.2     
   9 O9            -3.4441    -2.0204    -6.8888 O.3     
  10 C10           -4.9499    -1.4422    -3.4951 C.3     
  11 C11           -3.9639    -0.6092    -2.7172 C.2     
  12 C12           -3.7264     0.6705    -3.0016 C.2     
  13 O13           -4.4923    -0.2949    -5.9821 O.2     
  14 C14           -2.4051    -0.2396    -1.0722 C.2     
  15 S15           -2.5248     1.3130    -1.8899 S.3     
  16 N16           -1.5728    -0.5157     0.0143 N.am    
  17 S17            0.0021    -0.0041     0.0020 S.o2    
  18 O18            0.5399    -0.3912    -1.2550 O.2     
  19 O19            0.5638    -0.4046     1.2443 O.2     
  20 C20           -2.2906    -4.0249    -7.7715 C.2     
  21 C21           -1.9154    -5.2604    -7.4170 C.2     
  22 S22           -2.4046    -5.5927    -5.7639 S.3     
  23 O23           -1.2574    -6.1311    -8.2205 O.3     
  24 C24           -0.9384    -7.4097    -7.6679 C.3     
  25 H25            1.2805     2.3661     0.0025 H       
  26 H26           -3.3355    -2.1377    -1.3136 H       
  27 H27           -3.5018    -5.1277    -3.3185 H       
  28 H28           -3.4502    -3.5920    -2.4200 H       
  29 H29           -5.0064    -4.2309    -3.0016 H       
  30 H30           -5.7443    -0.8016    -3.8780 H       
  31 H31           -5.3790    -2.2018    -2.8416 H       
  32 H32           -4.1999     1.2289    -3.7955 H       
  33 H33           -1.9172    -1.0073     0.7763 H       
  34 H34           -2.0890    -3.6236    -8.7537 H       
  35 H35           -0.3008    -7.2788    -6.7936 H       
  36 H36           -1.8569    -7.9183    -7.3749 H       
  37 H37           -0.4143    -8.0073    -8.4137 H       
  38 C38            6.8077    10.0354     8.1126 C.3     
  39 N39            6.8276     8.5706     8.1045 N.2     
  40 C40            7.3683     7.9580     7.1585 C.1     
  41 O41            7.8908     7.3661     6.2443 O.2     
  42 H42            7.8303    10.4127     8.1049 H       
  43 H43            6.2805    10.3965     7.2295 H       
  44 H44            6.2975    10.3869     9.0094 H       
@<TRIPOS>BOND
   1    1   17 1
   2    1   25 1
   3    2   11 1
   4    2   14 2
   5    2   26 1
   6    3    6 1
   7    3   27 1
   8    3   28 1
   9    3   29 1
  10    4    5 2
  11    4    6 1
  12    4   22 1
  13    5   20 1
  14    5    9 1
  15    6    7 2
  16    7    8 1
  17    7   10 1
  18    8    9 1
  19    8   13 2
  20   10   11 1
  21   10   30 1
  22   10   31 1
  23   11   12 2
  24   12   15 1
  25   12   32 1
  26   14   15 1
  27   14   16 1
  28   16   17 am
  29   16   33 1
  30   17   18 2
  31   17   19 2
  32   20   21 2
  33   20   34 1
  34   21   22 1
  35   21   23 1
  36   23   24 1
  37   24   35 1
  38   24   36 1
  39   24   37 1
  40   38   39 1
  41   38   42 1
  42   38   43 1
  43   38   44 1
  44   39   40 2
  45   40   41 2

#	End of record

