#	Name: ASD01410509
#	Creating user name:	WinNT
#	Creation time:	15. 06. 2019 19:18

#	Modifying user name:	WinNT
#	Modification time:	15. 06. 2019 19:18

#	Program:	/corina/corina34_cracker 3.40 0067  02.08.2006

@<TRIPOS>MOLECULE
ASD01410509
  92   99    0    0    0
SMALL
NO_CHARGES


@<TRIPOS>ATOM
   1 C1            -0.3591     1.4668     0.2598 C.ar    
   2 C2            -0.4491     0.0698     0.3284 C.ar    
   3 C3             0.6906    -0.7409     0.3823 C.ar    
   4 C4             1.9545    -0.2250     0.2768 C.ar    
   5 C5             0.9116     2.0079     0.2007 C.ar    
   6 N6             1.4283     3.2492     0.3343 N.pl3   
   7 C7             2.0610     1.1593     0.0930 C.ar    
   8 C8             3.1315     1.9835    -0.3023 C.2     
   9 C9             2.6488     3.2363    -0.3909 C.2     
  10 C10            3.0125     4.2753    -1.3888 C.ar    
  11 C11            3.2298     3.9333    -2.7198 C.ar    
  12 C12            3.5822     4.8984    -3.6380 C.ar    
  13 C13            3.7264     6.2220    -3.2416 C.ar    
  14 C14            3.5075     6.5792    -1.9165 C.ar    
  15 C15            3.1466     5.6330    -0.9949 C.ar    
  16 C16            4.5476     1.5461    -0.5748 C.3     
  17 C17            5.1377     0.9133     0.6870 C.3     
  18 C18            6.5755     0.4692     0.4104 C.3     
  19 C19            6.5831    -0.5557    -0.7256 C.3     
  20 C20            5.9930     0.0771    -1.9874 C.3     
  21 C21            4.5552     0.5212    -1.7108 C.3     
  22 C22           -1.7815    -0.5633     0.3447 C.2     
  23 N23           -1.8891    -1.9052     0.4103 N.am    
  24 O24           -2.7826     0.1254     0.2990 O.2     
  25 S25           -3.3847    -2.6160     0.4287 S.o2    
  26 N26           -4.0980    -2.2948    -1.0309 N.am    
  27 O27           -3.1618    -4.0189     0.4663 O.2     
  28 O28           -4.1461    -1.9234     1.4084 O.2     
  29 C29           -3.9138    -3.2164    -2.1548 C.3     
  30 C30           -4.9131    -1.0891    -1.1984 C.3     
  31 C31            1.1412     4.2822     1.3357 C.3     
  32 C32            2.8490     5.9211     0.4222 C.3     
  33 C33            1.3786     5.6363     0.7773 C.3     
  34 O34            4.0820     7.1677    -4.1497 O.3     
  35 C35            4.2916     6.7301    -5.4938 C.3     
  36 C36            0.3823     5.8927    -0.3239 C.2     
  37 N37           -0.9230     6.0519    -0.0281 N.am    
  38 O38            0.7549     5.9558    -1.4763 O.2     
  39 C39           -2.0417     6.3930    -0.9422 C.3     
  40 C40           -1.5931     5.9223     1.2901 C.3     
  41 C41           -2.4683     7.8329    -0.6118 C.3     
  42 C42           -1.9979     7.3394     1.7290 C.3     
  43 N43           -2.9793     7.8752     0.7655 N.3     
  44 C44           -3.3923     9.2365     1.1322 C.3     
  45 C45           -3.1871     5.4514    -0.5010 C.3     
  46 C46           -2.8903     5.1400     0.9762 C.3     
  47 C47            2.0307     6.9003     1.1714 C.3     
  48 H48           -1.2407     2.0906     0.2491 H       
  49 H49            0.5693    -1.8063     0.5113 H       
  50 H50            2.8289    -0.8564     0.3332 H       
  51 H51            3.1213     2.9060    -3.0350 H       
  52 H52            3.7473     4.6247    -4.6696 H       
  53 H53            3.6220     7.6091    -1.6121 H       
  54 H54            5.1461     2.4108    -0.8616 H       
  55 H55            5.1323     1.6435     1.4963 H       
  56 H56            4.5392     0.0486     0.9738 H       
  57 H57            7.1740     1.3339     0.1236 H       
  58 H58            6.9959     0.0184     1.3093 H       
  59 H59            7.6074    -0.8721    -0.9226 H       
  60 H60            5.9846    -1.4204    -0.4388 H       
  61 H61            6.5915     0.9418    -2.2742 H       
  62 H62            5.9984    -0.6531    -2.7967 H       
  63 H63            3.9567    -0.3435    -1.4239 H       
  64 H64            4.1348     0.9720    -2.6097 H       
  65 H65           -1.0905    -2.4546     0.4468 H       
  66 H66           -4.7027    -3.9685    -2.1409 H       
  67 H67           -3.9581    -2.6607    -3.0914 H       
  68 H68           -2.9437    -3.7058    -2.0682 H       
  69 H69           -4.2808    -0.2665    -1.5325 H       
  70 H70           -5.6893    -1.2754    -1.9407 H       
  71 H71           -5.3758    -0.8283    -0.2466 H       
  72 H72            0.1000     4.2001     1.6476 H       
  73 H73            1.7871     4.1325     2.2009 H       
  74 H74            3.5981     5.4511     1.0594 H       
  75 H75            4.5700     7.5820    -6.1141 H       
  76 H76            5.0908     5.9892    -5.5143 H       
  77 H77            3.3738     6.2852    -5.8784 H       
  78 H78           -1.7727     6.2719    -1.9915 H       
  79 H79           -0.9649     5.4243     2.0286 H       
  80 H80           -1.6094     8.4979    -0.7028 H       
  81 H81           -3.2511     8.1489    -1.3013 H       
  82 H82           -2.4423     7.3003     2.7236 H       
  83 H83           -1.1173     7.9815     1.7462 H       
  84 H84           -4.1795     9.5716     0.4568 H       
  85 H85           -3.7664     9.2393     2.1560 H       
  86 H86           -2.5376     9.9085     1.0557 H       
  87 H87           -4.1500     5.9528    -0.5984 H       
  88 H88           -3.1737     4.5346    -1.0903 H       
  89 H89           -2.7311     4.0706     1.1145 H       
  90 H90           -3.7061     5.4887     1.6094 H       
  91 H91            2.2588     7.0341     2.2288 H       
  92 H92            1.7268     7.8035     0.6421 H       
@<TRIPOS>BOND
   1    1    2 ar
   2    1    5 ar
   3    1   48 1
   4    2    3 ar
   5    2   22 1
   6    3    4 ar
   7    3   49 1
   8    4    7 ar
   9    4   50 1
  10    5    7 ar
  11    5    6 1
  12    6    9 1
  13    6   31 1
  14    7    8 1
  15    8    9 2
  16    8   16 1
  17    9   10 1
  18   10   11 ar
  19   10   15 ar
  20   11   12 ar
  21   11   51 1
  22   12   13 ar
  23   12   52 1
  24   13   14 ar
  25   13   34 1
  26   14   15 ar
  27   14   53 1
  28   15   32 1
  29   16   17 1
  30   16   21 1
  31   16   54 1
  32   17   18 1
  33   17   55 1
  34   17   56 1
  35   18   19 1
  36   18   57 1
  37   18   58 1
  38   19   20 1
  39   19   59 1
  40   19   60 1
  41   20   21 1
  42   20   61 1
  43   20   62 1
  44   21   63 1
  45   21   64 1
  46   22   23 am
  47   22   24 2
  48   23   25 am
  49   23   65 1
  50   25   26 am
  51   25   27 2
  52   25   28 2
  53   26   29 1
  54   26   30 1
  55   29   66 1
  56   29   67 1
  57   29   68 1
  58   30   69 1
  59   30   70 1
  60   30   71 1
  61   31   33 1
  62   31   72 1
  63   31   73 1
  64   32   33 1
  65   32   47 1
  66   32   74 1
  67   33   36 1
  68   33   47 1
  69   34   35 1
  70   35   75 1
  71   35   76 1
  72   35   77 1
  73   36   37 am
  74   36   38 2
  75   37   39 1
  76   37   40 1
  77   39   41 1
  78   39   45 1
  79   39   78 1
  80   40   42 1
  81   40   46 1
  82   40   79 1
  83   41   43 1
  84   41   80 1
  85   41   81 1
  86   42   43 1
  87   42   82 1
  88   42   83 1
  89   43   44 1
  90   44   84 1
  91   44   85 1
  92   44   86 1
  93   45   46 1
  94   45   87 1
  95   45   88 1
  96   46   89 1
  97   46   90 1
  98   47   91 1
  99   47   92 1

#	End of record

