#	Name: ASD08170080
#	Creating user name:	WinNT
#	Creation time:	15. 06. 2019 21:17

#	Modifying user name:	WinNT
#	Modification time:	15. 06. 2019 21:17

#	Program:	/corina/corina34_cracker 3.40 0067  02.08.2006

@<TRIPOS>MOLECULE
ASD08170080
  69   72    0    0    0
SMALL
NO_CHARGES


@<TRIPOS>ATOM
   1 N1            -0.0150     1.2583     0.0090 N.2     
   2 N2             0.0021    -0.0041     0.0020 N.2     
   3 C3             1.1271     1.8769     0.0014 C.2     
   4 S4             2.3826     0.7116    -0.0169 S.3     
   5 C5             1.1681    -0.5677    -0.0121 C.2     
   6 C6             1.4387    -2.0502    -0.0227 C.3     
   7 C7             1.5165    -2.5442    -1.4687 C.3     
   8 C8             2.1699    -6.2152    -3.4347 C.3     
   9 C9             2.2167    -6.5408    -4.9053 C.2     
  10 N10            3.2694    -6.5184    -5.6596 N.2     
  11 S11            0.8491    -7.0282    -5.9071 S.3     
  12 C12            1.9000    -7.1354    -7.2557 C.2     
  13 N13            3.1017    -6.8250    -6.8728 N.2     
  14 N14            1.5289    -7.4992    -8.5457 N.am    
  15 C15            2.4537    -7.5464    -9.5250 C.2     
  16 O16            3.6096    -7.2716    -9.2812 O.2     
  17 C17            2.0516    -7.9407   -10.9228 C.3     
  18 N18            1.3017     3.2566     0.0067 N.am    
  19 C19            0.2284     4.0717     0.0214 C.2     
  20 C20            0.4176     5.5667     0.0272 C.3     
  21 O21           -0.8897     3.6019     0.0299 O.2     
  22 C22            1.8986    -4.7206    -3.2516 C.3     
  23 C23            3.2807    -7.9145   -11.8336 C.3     
  24 S24            1.8422    -4.3286    -1.4814 S.3     
  25 C25           -0.9494     6.2538     0.0441 C.3     
  26 C26           -0.7597     7.7674     0.1757 C.3     
  27 C27            2.8994    -8.4340   -13.2226 C.3     
  28 C28           -1.6900     5.9517    -1.2616 C.3     
  29 C29           -3.0302     6.6907    -1.2649 C.3     
  30 N30           -2.7948     8.1345    -1.1374 N.3     
  31 C31           -2.1268     8.4538     0.1308 C.3     
  32 C32            4.1170    -8.3484   -14.1458 C.3     
  33 N33            4.5702    -6.9543   -14.2323 N.3     
  34 C34            4.9865    -6.4488   -12.9179 C.3     
  35 C35            3.7949    -6.4776   -11.9581 C.3     
  36 H36            2.3843    -2.2506     0.4811 H       
  37 H37            0.6334    -2.5702     0.4961 H       
  38 H38            0.5709    -2.3438    -1.9724 H       
  39 H39            2.3218    -2.0242    -1.9874 H       
  40 H40            1.3741    -6.7896    -2.9605 H       
  41 H41            3.1250    -6.4700    -2.9755 H       
  42 H42            0.6045    -7.7190    -8.7407 H       
  43 H43            1.6303    -8.9459   -10.9098 H       
  44 H44            1.3064    -7.2392   -11.2980 H       
  45 H45            2.1959     3.6323    -0.0001 H       
  46 H46            0.9817     5.8582     0.9132 H       
  47 H47            0.9643     5.8672    -0.8667 H       
  48 H48            2.6943    -4.1461    -3.7258 H       
  49 H49            0.9434    -4.4658    -3.7108 H       
  50 H50            4.0614    -8.5464   -11.4100 H       
  51 H51           -1.5320     5.8849     0.8882 H       
  52 H52           -0.2708     7.9919     1.1237 H       
  53 H53           -0.1434     8.1299    -0.6470 H       
  54 H54            2.5728    -9.4711   -13.1462 H       
  55 H55            2.0910    -7.8262   -13.6291 H       
  56 H56           -1.0883     6.2856    -2.1069 H       
  57 H57           -1.8658     4.8789    -1.3405 H       
  58 H58           -3.5537     6.4892    -2.1994 H       
  59 H59           -3.6368     6.3463    -0.4273 H       
  60 H60           -2.2669     8.4855    -1.9225 H       
  61 H61           -2.7377     8.1011     0.9618 H       
  62 H62           -1.9943     9.5328     0.2099 H       
  63 H63            4.9202    -8.9673   -13.7459 H       
  64 H64            3.8450    -8.7042   -15.1395 H       
  65 H65            5.3124    -6.8567   -14.9089 H       
  66 H66            5.7856    -7.0766   -12.5238 H       
  67 H67            5.3460    -5.4248   -13.0199 H       
  68 H68            3.0006    -5.8391   -12.3447 H       
  69 H69            4.1080    -6.1170   -10.9783 H       
@<TRIPOS>BOND
   1    1    2 1
   2    1    3 2
   3    2    5 2
   4    3    4 1
   5    3   18 1
   6    4    5 1
   7    5    6 1
   8    6    7 1
   9    6   36 1
  10    6   37 1
  11    7   24 1
  12    7   38 1
  13    7   39 1
  14    8    9 1
  15    8   22 1
  16    8   40 1
  17    8   41 1
  18    9   10 2
  19    9   11 1
  20   10   13 1
  21   11   12 1
  22   12   13 2
  23   12   14 1
  24   14   15 am
  25   14   42 1
  26   15   16 2
  27   15   17 1
  28   17   23 1
  29   17   43 1
  30   17   44 1
  31   18   19 am
  32   18   45 1
  33   19   20 1
  34   19   21 2
  35   20   25 1
  36   20   46 1
  37   20   47 1
  38   22   24 1
  39   22   48 1
  40   22   49 1
  41   23   27 1
  42   23   35 1
  43   23   50 1
  44   25   26 1
  45   25   28 1
  46   25   51 1
  47   26   31 1
  48   26   52 1
  49   26   53 1
  50   27   32 1
  51   27   54 1
  52   27   55 1
  53   28   29 1
  54   28   56 1
  55   28   57 1
  56   29   30 1
  57   29   58 1
  58   29   59 1
  59   30   31 1
  60   30   60 1
  61   31   61 1
  62   31   62 1
  63   32   33 1
  64   32   63 1
  65   32   64 1
  66   33   34 1
  67   33   65 1
  68   34   35 1
  69   34   66 1
  70   34   67 1
  71   35   68 1
  72   35   69 1

#	End of record

