#	Name: ASD07930825
#	Creating user name:	WinNT
#	Creation time:	15. 06. 2019 21:13

#	Modifying user name:	WinNT
#	Modification time:	15. 06. 2019 21:13

#	Program:	/corina/corina34_cracker 3.40 0067  02.08.2006

@<TRIPOS>MOLECULE
ASD07930825
  45   48    0    0    0
SMALL
NO_CHARGES


@<TRIPOS>ATOM
   1 C1            -0.0180     1.4736     0.0101 C.2     
   2 C2             0.0021    -0.0041     0.0020 C.ar    
   3 C3             1.2186    -0.6887    -0.0133 C.ar    
   4 C4             1.2302    -2.0681    -0.0208 C.ar    
   5 C5             0.0396    -2.7731    -0.0138 C.ar    
   6 C6            -1.1696    -2.1008     0.0014 C.ar    
   7 C7            -1.1954    -0.7216     0.0154 C.ar    
   8 O8             1.0261     2.0955     0.0035 O.2     
   9 N9            -1.1942     2.1316     0.0193 N.am    
  10 S10            0.3216     4.3761     0.0243 S.3     
  11 C11           -1.2129     3.5126     0.0269 C.2     
  12 N12           -2.3410     4.1076     0.0351 N.2     
  13 C13           -2.6610     5.5147     0.0580 C.3     
  14 C14           -1.4444     6.4414     0.1967 C.3     
  15 C15           -0.2543     5.9695    -0.6172 C.3     
  16 O16           -2.3546     6.0020     2.3636 O.3     
  17 C17           -3.3997     5.8140     1.3948 C.3     
  18 C18           -1.1482     6.4144     1.7046 C.3     
  19 C19           -0.7451     7.8111     2.1816 C.3     
  20 F20           -0.3682     7.7534     3.5277 F       
  21 C21           -3.5109     5.8919    -1.1279 C.ar    
  22 C22           -3.9399     7.1995    -1.2842 C.ar    
  23 C23           -4.7199     7.5457    -2.3737 C.ar    
  24 C24           -5.0704     6.5844    -3.3062 C.ar    
  25 C25           -4.6404     5.2779    -3.1480 C.ar    
  26 C26           -3.8569     4.9343    -2.0622 C.ar    
  27 F27           -5.8322     6.9209    -4.3700 F       
  28 F28           -3.5974     8.1365    -0.3732 F       
  29 H29            2.1486    -0.1396    -0.0195 H       
  30 H30            2.1706    -2.5990    -0.0327 H       
  31 H31            0.0543    -3.8530    -0.0205 H       
  32 H32           -2.0953    -2.6571     0.0065 H       
  33 H33           -2.1399    -0.1980     0.0321 H       
  34 H34           -2.0276     1.6352     0.0206 H       
  35 H35           -1.7169     7.4533    -0.1033 H       
  36 H36            0.5494     6.7023    -0.5448 H       
  37 H37           -0.5499     5.8559    -1.6602 H       
  38 H38           -3.9980     6.7204     1.3023 H       
  39 H39           -4.0299     4.9704     1.6764 H       
  40 H40           -0.3492     5.7029     1.9134 H       
  41 H41            0.0929     8.1711     1.5848 H       
  42 H42           -1.5896     8.4911     2.0696 H       
  43 H43           -5.0552     8.5650    -2.4962 H       
  44 H44           -4.9137     4.5278    -3.8753 H       
  45 H45           -3.5185     3.9158    -1.9417 H       
@<TRIPOS>BOND
   1    1    2 1
   2    1    8 2
   3    1    9 am
   4    2    3 ar
   5    2    7 ar
   6    3    4 ar
   7    3   29 1
   8    4    5 ar
   9    4   30 1
  10    5    6 ar
  11    5   31 1
  12    6    7 ar
  13    6   32 1
  14    7   33 1
  15    9   11 1
  16    9   34 1
  17   10   11 1
  18   10   15 1
  19   11   12 2
  20   12   13 1
  21   13   17 1
  22   13   21 1
  23   13   14 1
  24   14   15 1
  25   14   18 1
  26   14   35 1
  27   15   36 1
  28   15   37 1
  29   16   17 1
  30   16   18 1
  31   17   38 1
  32   17   39 1
  33   18   19 1
  34   18   40 1
  35   19   20 1
  36   19   41 1
  37   19   42 1
  38   21   22 ar
  39   21   26 ar
  40   22   23 ar
  41   22   28 1
  42   23   24 ar
  43   23   43 1
  44   24   25 ar
  45   24   27 1
  46   25   26 ar
  47   25   44 1
  48   26   45 1

#	End of record

