#	Name: ASD03091066
#	Creating user name:	WinNT
#	Creation time:	15. 06. 2019 20:30

#	Modifying user name:	WinNT
#	Modification time:	15. 06. 2019 20:30

#	Program:	/corina/corina34_cracker 3.40 0067  02.08.2006

@<TRIPOS>MOLECULE
ASD03091066
  48   50    0    0    0
SMALL
NO_CHARGES


@<TRIPOS>ATOM
   1 C1            -0.0395     1.4496    -0.3779 C.2     
   2 C2            -0.0083    -0.0163    -0.1865 C.ar    
   3 C3             1.2138    -0.6879    -0.1194 C.ar    
   4 C4             1.2404    -2.0559     0.0593 C.ar    
   5 C5             0.0598    -2.7661     0.1728 C.ar    
   6 C6            -1.1621    -2.1070     0.1073 C.ar    
   7 C7            -1.1994    -0.7316    -0.0667 C.ar    
   8 O8             0.4806     1.9458    -1.3580 O.2     
   9 N9            -0.6496     2.2351     0.5317 N.am    
  10 C10           -0.6805     3.6874     0.3421 C.3     
  11 C11           -1.4276     4.3382     1.5080 C.3     
  12 C12           -1.4599     5.8550     1.3100 C.3     
  13 N13            2.4810     0.0674    -0.2403 N.pl3   
  14 O14            3.5416    -0.5284    -0.3027 O.2     
  15 O15            2.4633     1.2847    -0.2775 O.2     
  16 N16           -5.0885    -3.7006    -0.5027 N.3     
  17 C17           -4.8146    -2.6598     0.5000 C.3     
  18 C18           -3.5160    -1.9354     0.1813 C.3     
  19 N19           -2.3525    -2.8292     0.2220 N.3     
  20 C20           -2.4498    -3.8542    -0.8266 C.3     
  21 C21           -3.0826    -5.1220    -0.2726 C.3     
  22 C22           -4.5740    -4.9960    -0.0357 C.3     
  23 C23           -4.6996    -3.3973    -1.8632 C.3     
  24 C24           -3.1924    -3.2781    -2.0184 C.3     
  25 H25            2.1869    -2.5736     0.1102 H       
  26 H26            0.0870    -3.8367     0.3125 H       
  27 H27           -2.1476    -0.2169    -0.1138 H       
  28 H28           -1.0681     1.8388     1.3119 H       
  29 H29            0.3392     4.0708     0.3048 H       
  30 H30           -1.1909     3.9211    -0.5922 H       
  31 H31           -2.4473     3.9548     1.5454 H       
  32 H32           -0.9171     4.1045     2.4423 H       
  33 H33           -1.9921     6.3185     2.1407 H       
  34 H34           -0.4402     6.2383     1.2727 H       
  35 H35           -1.9703     6.0886     0.3757 H       
  36 H36           -5.6345    -1.9416     0.5052 H       
  37 H37           -4.7361    -3.1213     1.4843 H       
  38 H38           -3.5908    -1.4983    -0.8144 H       
  39 H39           -3.3715    -1.1345     0.9065 H       
  40 H40           -1.4394    -4.0963    -1.1562 H       
  41 H41           -2.9080    -5.9359    -0.9763 H       
  42 H42           -2.5984    -5.3703     0.6719 H       
  43 H43           -4.7745    -5.0949     1.0311 H       
  44 H44           -5.0878    -5.7960    -0.5687 H       
  45 H45           -5.0610    -4.1893    -2.5191 H       
  46 H46           -5.1612    -2.4559    -2.1613 H       
  47 H47           -2.9293    -2.2257    -2.1248 H       
  48 H48           -2.8856    -3.8111    -2.9183 H       
@<TRIPOS>BOND
   1    1    2 1
   2    1    8 2
   3    1    9 am
   4    2    3 ar
   5    2    7 ar
   6    3    4 ar
   7    3   13 1
   8    4    5 ar
   9    4   25 1
  10    5    6 ar
  11    5   26 1
  12    6    7 ar
  13    6   19 1
  14    7   27 1
  15    9   10 1
  16    9   28 1
  17   10   11 1
  18   10   29 1
  19   10   30 1
  20   11   12 1
  21   11   31 1
  22   11   32 1
  23   12   33 1
  24   12   34 1
  25   12   35 1
  26   13   14 2
  27   13   15 2
  28   16   17 1
  29   16   22 1
  30   16   23 1
  31   17   18 1
  32   17   36 1
  33   17   37 1
  34   18   19 1
  35   18   38 1
  36   18   39 1
  37   19   20 1
  38   20   21 1
  39   20   24 1
  40   20   40 1
  41   21   22 1
  42   21   41 1
  43   21   42 1
  44   22   43 1
  45   22   44 1
  46   23   24 1
  47   23   45 1
  48   23   46 1
  49   24   47 1
  50   24   48 1

#	End of record

