#	Name: ASD01028240
#	Creating user name:	WinNT
#	Creation time:	15. 06. 2019 18:56

#	Modifying user name:	WinNT
#	Modification time:	15. 06. 2019 18:56

#	Program:	/corina/corina34_cracker 3.40 0067  02.08.2006

@<TRIPOS>MOLECULE
ASD01028240
  49   54    0    0    0
SMALL
NO_CHARGES


@<TRIPOS>ATOM
   1 C1            -0.0166     1.3719     0.0096 C.ar    
   2 C2             0.0021    -0.0041     0.0020 C.ar    
   3 C3             1.1750     2.1035     0.0021 C.ar    
   4 C4             2.3797     1.4715    -0.0128 C.ar    
   5 C5             2.4326     0.0695    -0.0208 C.ar    
   6 C6             1.2322    -0.6815    -0.0134 C.ar    
   7 C7             3.6676    -0.6170    -0.0367 C.ar    
   8 C8             3.6411    -2.0003    -0.0444 C.ar    
   9 C9             2.4221    -2.6660    -0.0364 C.ar    
  10 N10            1.2804    -2.0188    -0.0211 N.ar    
  11 O11            4.8427     0.0593    -0.0447 O.3     
  12 C12            6.0400    -0.7207    -0.0607 C.3     
  13 C13            7.2364     0.1957    -0.0676 C.2     
  14 N14            7.8800     0.6745     1.0191 N.pl3   
  15 C15            8.9001     1.4612     0.5399 C.2     
  16 N16            8.8263     1.4215    -0.7805 N.2     
  17 N17            7.8431     0.6668    -1.1286 N.2     
  18 N18            7.7014     0.5212     2.3955 N.2     
  19 C19            8.5043     1.1258     3.2434 C.2     
  20 C20            9.5607     1.9401     2.7823 C.2     
  21 C21            9.7597     2.1076     1.4485 C.2     
  22 C22            8.2970     0.9502     4.7016 C.2     
  23 C23            9.1237     1.5725     5.5861 C.2     
  24 C24            7.2367     0.1407     5.1725 C.2     
  25 C25            7.0543    -0.0145     6.5088 C.2     
  26 C26            7.9257     0.6344     7.4086 C.2     
  27 N27            8.9427     1.4183     6.9279 N.pl3   
  28 O28           -1.2065     2.0271     0.0188 O.3     
  29 C29           -1.1606     3.4553     0.0263 C.3     
  30 N30            7.9805     0.6583     8.7326 N.2     
  31 C31            9.0026     1.4274     9.1158 C.2     
  32 C32            9.6153     1.9116     8.0136 C.2     
  33 H33           -0.9239    -0.5598     0.0082 H       
  34 H34            1.1387     3.1829     0.0079 H       
  35 H35            3.2932     2.0476    -0.0188 H       
  36 H36            4.5646    -2.5602    -0.0569 H       
  37 H37            2.4134    -3.7460    -0.0425 H       
  38 H38            6.0728    -1.3543     0.8256 H       
  39 H39            6.0552    -1.3447    -0.9543 H       
  40 H40           10.2122     2.4304     3.4905 H       
  41 H41           10.5664     2.7298     1.0899 H       
  42 H42            9.9293     2.1927     5.2217 H       
  43 H43            6.5762    -0.3506     4.4733 H       
  44 H44            6.2481    -0.6297     6.8801 H       
  45 H45           -2.1761     3.8514     0.0333 H       
  46 H46           -0.6312     3.7971     0.9157 H       
  47 H47           -0.6396     3.8068    -0.8642 H       
  48 H48            9.2895     1.6312    10.1368 H       
  49 H49           10.4753     2.5646     7.9928 H       
@<TRIPOS>BOND
   1    1    2 ar
   2    1    3 ar
   3    1   28 1
   4    2    6 ar
   5    2   33 1
   6    3    4 ar
   7    3   34 1
   8    4    5 ar
   9    4   35 1
  10    5    6 ar
  11    5    7 ar
  12    6   10 ar
  13    7    8 ar
  14    7   11 1
  15    8    9 ar
  16    8   36 1
  17    9   10 ar
  18    9   37 1
  19   11   12 1
  20   12   13 1
  21   12   38 1
  22   12   39 1
  23   13   14 1
  24   13   17 2
  25   14   15 1
  26   14   18 1
  27   15   16 2
  28   15   21 1
  29   16   17 1
  30   18   19 2
  31   19   20 1
  32   19   22 1
  33   20   21 2
  34   20   40 1
  35   21   41 1
  36   22   23 2
  37   22   24 1
  38   23   27 1
  39   23   42 1
  40   24   25 2
  41   24   43 1
  42   25   26 1
  43   25   44 1
  44   26   27 1
  45   26   30 2
  46   27   32 1
  47   28   29 1
  48   29   45 1
  49   29   46 1
  50   29   47 1
  51   30   31 1
  52   31   32 2
  53   31   48 1
  54   32   49 1

#	End of record

