#	Name: ASD00431236
#	Creating user name:	WinNT
#	Creation time:	15. 06. 2019 18:35

#	Modifying user name:	WinNT
#	Modification time:	15. 06. 2019 18:35

#	Program:	/corina/corina34_cracker 3.40 0067  02.08.2006

@<TRIPOS>MOLECULE
ASD00431236
  57   62    0    0    0
SMALL
NO_CHARGES


@<TRIPOS>ATOM
   1 C1            -0.0769     1.5701     0.2811 C.2     
   2 N2             0.0097     0.2289     0.2245 N.am    
   3 C3             1.2927    -0.1747     0.2540 C.2     
   4 C4             2.1602     1.0191     0.3393 C.ar    
   5 C5             3.5302     1.2176     0.3993 C.ar    
   6 C6             4.0351     2.5062     0.4759 C.ar    
   7 C7             3.1817     3.5934     0.4927 C.ar    
   8 C8             1.8090     3.4101     0.4333 C.ar    
   9 C9             1.2899     2.1277     0.3565 C.ar    
  10 O10           -1.1059     2.2152     0.2672 O.2     
  11 O11            1.6743    -1.3271     0.2174 O.2     
  12 C12           -1.1414    -0.6735     0.1421 C.3     
  13 C13           -1.0512    -1.4993    -1.1427 C.3     
  14 C14           -1.1426    -1.5964     1.3334 C.2     
  15 C15           -2.2290    -1.9693     2.0146 C.2     
  16 C16           -1.9918    -2.8235     3.0726 C.2     
  17 C17           -0.6938    -3.1489     3.2531 C.2     
  18 S18            0.2855    -2.3495     2.0302 S.3     
  19 S19           -1.1408    -4.8553     5.5369 S.3     
  20 C20            0.2718    -5.5625     6.1898 C.2     
  21 N21            1.3151    -5.1897     5.5172 N.2     
  22 C22            1.1153    -4.3746     4.5023 C.2     
  23 C23           -0.1786    -4.0392     4.3072 C.2     
  24 O24            0.2972    -6.3941     7.2593 O.3     
  25 C25            1.4744    -6.9998     7.5688 C.ar    
  26 C26            2.5575    -6.8915     6.7087 C.ar    
  27 C27            3.7532    -7.5068     7.0232 C.ar    
  28 C28            3.8711    -8.2337     8.1990 C.ar    
  29 C29            2.7880    -8.3421     9.0591 C.ar    
  30 C30            1.5941    -7.7216     8.7477 C.ar    
  31 O31            5.0480    -8.8403     8.5081 O.3     
  32 C32            6.0499    -8.7933     7.5915 C.ar    
  33 C33            6.7699    -7.6214     7.4081 C.ar    
  34 C34            7.7879    -7.5763     6.4756 C.ar    
  35 C35            8.0898    -8.6978     5.7251 C.ar    
  36 C36            7.3739    -9.8668     5.9058 C.ar    
  37 C37            6.3587    -9.9190     6.8410 C.ar    
  38 H38            4.2018     0.3719     0.3869 H       
  39 H39            5.1028     2.6618     0.5230 H       
  40 H40            3.5872     4.5926     0.5530 H       
  41 H41            1.1469     4.2632     0.4472 H       
  42 H42           -2.0614    -0.0889     0.1344 H       
  43 H43           -1.9077    -2.1707    -1.2041 H       
  44 H44           -1.0503    -0.8318    -2.0044 H       
  45 H45           -0.1312    -2.0838    -1.1350 H       
  46 H46           -3.2205    -1.6274     1.7568 H       
  47 H47           -2.7812    -3.2011     3.7056 H       
  48 H48            1.9170    -4.0061     3.8795 H       
  49 H49            2.4656    -6.3262     5.7931 H       
  50 H50            4.5964    -7.4225     6.3536 H       
  51 H51            2.8797    -8.9082     9.9743 H       
  52 H52            0.7524    -7.8019     9.4195 H       
  53 H53            6.5343    -6.7451     7.9938 H       
  54 H54            8.3484    -6.6643     6.3323 H       
  55 H55            8.8859    -8.6603     4.9962 H       
  56 H56            7.6117   -10.7413     5.3183 H       
  57 H57            5.8030   -10.8337     6.9851 H       
@<TRIPOS>BOND
   1    1    2 am
   2    1    9 1
   3    1   10 2
   4    2    3 am
   5    2   12 1
   6    3    4 1
   7    3   11 2
   8    4    5 ar
   9    4    9 ar
  10    5    6 ar
  11    5   38 1
  12    6    7 ar
  13    6   39 1
  14    7    8 ar
  15    7   40 1
  16    8    9 ar
  17    8   41 1
  18   12   13 1
  19   12   14 1
  20   12   42 1
  21   13   43 1
  22   13   44 1
  23   13   45 1
  24   14   15 2
  25   14   18 1
  26   15   16 1
  27   15   46 1
  28   16   17 2
  29   16   47 1
  30   17   18 1
  31   17   23 1
  32   19   20 1
  33   19   23 1
  34   20   21 2
  35   20   24 1
  36   21   22 1
  37   22   23 2
  38   22   48 1
  39   24   25 1
  40   25   26 ar
  41   25   30 ar
  42   26   27 ar
  43   26   49 1
  44   27   28 ar
  45   27   50 1
  46   28   29 ar
  47   28   31 1
  48   29   30 ar
  49   29   51 1
  50   30   52 1
  51   31   32 1
  52   32   33 ar
  53   32   37 ar
  54   33   34 ar
  55   33   53 1
  56   34   35 ar
  57   34   54 1
  58   35   36 ar
  59   35   55 1
  60   36   37 ar
  61   36   56 1
  62   37   57 1

#	End of record

