#	Name: ASD09740223
#	Creating user name:	WinNT
#	Creation time:	15. 06. 2019 21:23

#	Modifying user name:	WinNT
#	Modification time:	15. 06. 2019 21:23

#	Program:	/corina/corina34_cracker 3.40 0067  02.08.2006

@<TRIPOS>MOLECULE
ASD09740223
  61   63    0    0    0
SMALL
NO_CHARGES


@<TRIPOS>ATOM
   1 O1            -0.0144     1.2086     0.0087 O.3     
   2 N2             0.0021    -0.0041     0.0020 N.2     
   3 C3             1.2431     1.6781    -0.0008 C.2     
   4 N4             2.0405     0.6237    -0.0141 N.2     
   5 C5             1.2261    -0.4429    -0.0120 C.2     
   6 C6             1.6530    -1.8881    -0.0239 C.3     
   7 C7             1.6554     3.0960     0.0024 C.ar    
   8 C8             1.1175    -2.5882     1.2272 C.3     
   9 C9             1.0950    -2.5744    -1.2728 C.3     
  10 C10            1.5596    -4.0339    -1.2992 C.3     
  11 N11            1.1743    -4.6758    -0.0350 N.am    
  12 C12            1.5823    -4.0479     1.2291 C.3     
  13 C13            0.6900     4.1058     0.0171 C.ar    
  14 C14            1.0808     5.4309     0.0206 C.ar    
  15 C15            2.4359     5.7578     0.0094 C.ar    
  16 C16            3.3944     4.7549    -0.0051 C.ar    
  17 C17            3.0110     3.4303    -0.0033 C.ar    
  18 C18            0.4598    -5.8186    -0.0349 C.2     
  19 O19            0.1281    -6.3278    -1.0871 O.2     
  20 O20            0.1136    -6.3960     1.1310 O.3     
  21 C21           -0.6558    -7.6250     1.0551 C.3     
  22 C22            0.1466    -8.6829     0.2948 C.3     
  23 C23           -0.9528    -8.1289     2.4689 C.3     
  24 C24           -1.9718    -7.3584     0.3217 C.3     
  25 O25            0.1437     6.4163     0.0344 O.3     
  26 C26           -2.1260     7.2461     0.0597 C.3     
  27 C27           -1.2260     6.0089     0.0448 C.3     
  28 O28            2.8187     7.0614     0.0124 O.3     
  29 C29            4.4582     8.8370     0.0059 C.3     
  30 C30            4.2231     7.3251     0.0005 C.3     
  31 H31            2.7415    -1.9452    -0.0341 H       
  32 H32            1.4966    -2.0845     2.1164 H       
  33 H33            0.0280    -2.5533     1.2254 H       
  34 H34            0.0058    -2.5396    -1.2511 H       
  35 H35            1.4582    -2.0608    -2.1630 H       
  36 H36            1.0855    -4.5533    -2.1321 H       
  37 H37            2.6431    -4.0705    -1.4123 H       
  38 H38            2.6677    -4.0857     1.3223 H       
  39 H39            1.1232    -4.5765     2.0645 H       
  40 H40           -0.3595     3.8511     0.0254 H       
  41 H41            4.4433     5.0122    -0.0141 H       
  42 H42            3.7592     2.6516    -0.0144 H       
  43 H43            1.0842    -8.8728     0.8174 H       
  44 H44           -0.4309    -9.6055     0.2379 H       
  45 H45            0.3583    -8.3239    -0.7124 H       
  46 H46           -1.5245    -7.3752     3.0106 H       
  47 H47           -1.5304    -9.0515     2.4120 H       
  48 H48           -0.0153    -8.3188     2.9915 H       
  49 H49           -1.7601    -6.9995    -0.6855 H       
  50 H50           -2.5493    -8.2811     0.2647 H       
  51 H51           -2.5434    -6.6048     0.8633 H       
  52 H52           -3.1707     6.9353     0.0676 H       
  53 H53           -1.9161     7.8374     0.9509 H       
  54 H54           -1.9324     7.8469    -0.8289 H       
  55 H55           -1.4359     5.4175    -0.8464 H       
  56 H56           -1.4196     5.4081     0.9335 H       
  57 H57            4.0147     9.2704     0.9023 H       
  58 H58            5.5294     9.0381    -0.0032 H       
  59 H59            3.9979     9.2794    -0.8776 H       
  60 H60            4.6834     6.8827     0.8839 H       
  61 H61            4.6666     6.8917    -0.8959 H       
@<TRIPOS>BOND
   1    1    2 1
   2    1    3 1
   3    2    5 2
   4    3    4 2
   5    3    7 1
   6    4    5 1
   7    5    6 1
   8    6    8 1
   9    6    9 1
  10    6   31 1
  11    7   13 ar
  12    7   17 ar
  13    8   12 1
  14    8   32 1
  15    8   33 1
  16    9   10 1
  17    9   34 1
  18    9   35 1
  19   10   11 1
  20   10   36 1
  21   10   37 1
  22   11   12 1
  23   11   18 am
  24   12   38 1
  25   12   39 1
  26   13   14 ar
  27   13   40 1
  28   14   15 ar
  29   14   25 1
  30   15   16 ar
  31   15   28 1
  32   16   17 ar
  33   16   41 1
  34   17   42 1
  35   18   19 2
  36   18   20 1
  37   20   21 1
  38   21   22 1
  39   21   23 1
  40   21   24 1
  41   22   43 1
  42   22   44 1
  43   22   45 1
  44   23   46 1
  45   23   47 1
  46   23   48 1
  47   24   49 1
  48   24   50 1
  49   24   51 1
  50   25   27 1
  51   26   27 1
  52   26   52 1
  53   26   53 1
  54   26   54 1
  55   27   55 1
  56   27   56 1
  57   28   30 1
  58   29   30 1
  59   29   57 1
  60   29   58 1
  61   29   59 1
  62   30   60 1
  63   30   61 1

#	End of record

