#	Name: ASD00071064
#	Creating user name:	WinNT
#	Creation time:	15. 06. 2019 18:30

#	Modifying user name:	WinNT
#	Modification time:	15. 06. 2019 18:30

#	Program:	/corina/corina34_cracker 3.40 0067  02.08.2006

@<TRIPOS>MOLECULE
ASD00071064
  35   37    0    0    0
SMALL
NO_CHARGES


@<TRIPOS>ATOM
   1 N1             0.9864     1.2518     1.3044 N.ar    
   2 C2             1.1311    -0.0556     1.2393 C.ar    
   3 C3             1.0638    -0.7391     0.0156 C.ar    
   4 C4             0.8444    -0.0489    -1.1372 C.ar    
   5 C5             0.6897     1.3523    -1.0610 C.ar    
   6 N6             0.4721     2.0812    -2.1575 N.ar    
   7 C7             0.3270     3.3830    -2.0931 C.ar    
   8 C8             0.3929     4.0657    -0.8809 C.ar    
   9 C9             0.6133     3.3779     0.2785 C.ar    
  10 C10            0.7689     1.9803     0.2050 C.ar    
  11 N11            1.3553    -0.7724     2.4053 N.pl3   
  12 C12            1.2348    -2.2359    -0.0226 C.3     
  13 C13            0.9883    -2.7341    -1.4233 C.ar    
  14 C14            2.0430    -2.8601    -2.3087 C.ar    
  15 C15            1.8166    -3.3175    -3.5948 C.ar    
  16 C16            0.5361    -3.6493    -3.9973 C.ar    
  17 C17           -0.5205    -3.5245    -3.1163 C.ar    
  18 C18           -0.2957    -3.0720    -1.8240 C.ar    
  19 O19           -1.3332    -2.9543    -0.9541 O.3     
  20 C20           -2.6280    -3.3203    -1.4352 C.3     
  21 Cl21           3.6518    -2.4438    -1.8066 Cl      
  22 H22            0.7903    -0.5607    -2.0867 H       
  23 H23            0.1527     3.9393    -3.0022 H       
  24 H24            0.2702     5.1384    -0.8576 H       
  25 H25            0.6667     3.8924     1.2266 H       
  26 H26            1.4888    -0.3042     3.2443 H       
  27 H27            1.3786    -1.7418     2.3818 H       
  28 H28            2.2493    -2.4935     0.2814 H       
  29 H29            0.5222    -2.7005     0.6590 H       
  30 H30            2.6412    -3.4152    -4.2853 H       
  31 H31            0.3618    -4.0061    -5.0016 H       
  32 H32           -1.5204    -3.7836    -3.4318 H       
  33 H33           -2.8888    -2.6942    -2.2885 H       
  34 H34           -2.6196    -4.3664    -1.7412 H       
  35 H35           -3.3632    -3.1793    -0.6430 H       
@<TRIPOS>BOND
   1    1    2 ar
   2    1   10 ar
   3    2    3 ar
   4    2   11 1
   5    3    4 ar
   6    3   12 1
   7    4    5 ar
   8    4   22 1
   9    5    6 ar
  10    5   10 ar
  11    6    7 ar
  12    7    8 ar
  13    7   23 1
  14    8    9 ar
  15    8   24 1
  16    9   10 ar
  17    9   25 1
  18   11   26 1
  19   11   27 1
  20   12   13 1
  21   12   28 1
  22   12   29 1
  23   13   14 ar
  24   13   18 ar
  25   14   15 ar
  26   14   21 1
  27   15   16 ar
  28   15   30 1
  29   16   17 ar
  30   16   31 1
  31   17   18 ar
  32   17   32 1
  33   18   19 1
  34   19   20 1
  35   20   33 1
  36   20   34 1
  37   20   35 1

#	End of record

