#	Name: ASD07930719
#	Creating user name:	WinNT
#	Creation time:	15. 06. 2019 21:13

#	Modifying user name:	WinNT
#	Modification time:	15. 06. 2019 21:13

#	Program:	/corina/corina34_cracker 3.40 0067  02.08.2006

@<TRIPOS>MOLECULE
ASD07930719
  43   45    0    0    0
SMALL
NO_CHARGES


@<TRIPOS>ATOM
   1 C1            -0.0178     1.4608     0.0101 C.3     
   2 N2             0.8031    -0.4153    -2.1619 N.2     
   3 N3            -0.8796    -1.7833    -1.2911 N.pl3   
   4 C4            -0.9005    -2.8248    -0.2586 C.3     
   5 C5            -1.2102    -2.1834     1.1010 C.3     
   6 S6             0.0275    -0.8859     1.4156 S.o2    
   7 N7             0.0021    -0.0041     0.0020 N.am    
   8 C8             0.0002    -0.7257    -1.1832 C.2     
   9 C9             0.4646    -3.5132    -0.1997 C.3     
  10 O10           -0.4323     0.0192     2.4099 O.2     
  11 O11            1.3354    -1.4387     1.4687 O.2     
  12 C12           -1.9627    -3.8410    -0.5904 C.2     
  13 S13           -2.8639    -4.7813     0.5906 S.3     
  14 C14           -3.7636    -5.5889    -0.6864 C.2     
  15 C15           -3.3568    -5.1289    -1.8838 C.2     
  16 C16           -2.3615    -4.1555    -1.8202 C.2     
  17 C17           -3.9253    -5.6138    -3.1658 C.ar    
  18 C18           -4.9221    -6.5836    -3.1630 C.ar    
  19 C19           -5.4519    -7.0340    -4.3718 C.ar    
  20 C20           -4.9783    -6.5087    -5.5763 C.ar    
  21 C21           -3.9885    -5.5463    -5.5702 C.ar    
  22 C22           -3.4647    -5.0935    -4.3751 C.ar    
  23 C23           -6.4783    -8.0326    -4.3783 C.1     
  24 N24           -7.2925    -8.8247    -4.3834 N.1     
  25 C25           -2.6096    -1.5655     1.0731 C.3     
  26 H26            1.0048     1.8381     0.0023 H       
  27 H27           -0.5450     1.8219    -0.8730 H       
  28 H28           -0.5280     1.8123     0.9069 H       
  29 H29            0.7883    -0.9307    -2.9835 H       
  30 H30           -1.4804    -1.8399    -2.0505 H       
  31 H31           -1.1573    -2.9394     1.8845 H       
  32 H32            1.2322    -2.7780     0.0418 H       
  33 H33            0.4485    -4.2871     0.5677 H       
  34 H34            0.6857    -3.9650    -1.1667 H       
  35 H35           -4.5252    -6.3392    -0.5333 H       
  36 H36           -1.9402    -3.6968    -2.7026 H       
  37 H37           -5.2842    -6.9864    -2.2286 H       
  38 H38           -5.3868    -6.8562    -6.5137 H       
  39 H39           -3.6249    -5.1431    -6.5038 H       
  40 H40           -2.6906    -4.3405    -4.3774 H       
  41 H41           -3.3455    -2.3419     0.8638 H       
  42 H42           -2.8256    -1.1113     2.0401 H       
  43 H43           -2.6546    -0.8031     0.2953 H       
@<TRIPOS>BOND
   1    1    7 1
   2    1   26 1
   3    1   27 1
   4    1   28 1
   5    2    8 2
   6    2   29 1
   7    3    4 1
   8    3    8 1
   9    3   30 1
  10    4    9 1
  11    4   12 1
  12    4    5 1
  13    5    6 1
  14    5   25 1
  15    5   31 1
  16    6    7 am
  17    6   10 2
  18    6   11 2
  19    7    8 1
  20    9   32 1
  21    9   33 1
  22    9   34 1
  23   12   13 1
  24   12   16 2
  25   13   14 1
  26   14   15 2
  27   14   35 1
  28   15   16 1
  29   15   17 1
  30   16   36 1
  31   17   18 ar
  32   17   22 ar
  33   18   19 ar
  34   18   37 1
  35   19   20 ar
  36   19   23 1
  37   20   21 ar
  38   20   38 1
  39   21   22 ar
  40   21   39 1
  41   22   40 1
  42   23   24 3
  43   25   41 1
  44   25   42 1
  45   25   43 1

#	End of record

