#	Name: ASD01870654
#	Creating user name:	WinNT
#	Creation time:	15. 06. 2019 19:39

#	Modifying user name:	WinNT
#	Modification time:	15. 06. 2019 19:39

#	Program:	/corina/corina34_cracker 3.40 0067  02.08.2006

@<TRIPOS>MOLECULE
ASD01870654
  43   46    0    0    0
SMALL
NO_CHARGES


@<TRIPOS>ATOM
   1 C1            -0.0169     1.3954     0.0222 C.ar    
   2 N2             0.0004    -0.0032    -0.0094 N.am    
   3 C3            -1.1504    -0.6943     0.1110 C.2     
   4 C4            -1.1436    -2.1656    -0.0077 C.ar    
   5 C5             0.0584    -4.2167    -0.3489 C.ar    
   6 C6             0.0558    -2.8440    -0.2392 C.ar    
   7 C7            -2.3358    -2.8838     0.1169 C.ar    
   8 C8            -2.3256    -4.2563     0.0060 C.ar    
   9 C9            -1.1307    -4.9277    -0.2292 C.ar    
  10 N10           -1.1242    -6.3213    -0.3412 N.am    
  11 C11           -0.5925    -8.5527     0.0493 C.3     
  12 C12           -0.3595    -7.1063     0.4277 C.2     
  13 C13           -1.8864    -6.9808    -1.2223 C.2     
  14 C14           -1.6384    -8.4668    -1.0809 C.3     
  15 C15           -1.9896    -9.1451     0.2448 C.3     
  16 C16           -2.1153   -10.6700     0.2451 C.3     
  17 C17           -2.9441    -8.4054     1.1843 C.3     
  18 O18            0.3996    -6.7196     1.2900 O.2     
  19 O19           -2.6539    -6.4688    -2.0086 O.2     
  20 C20            0.9882     2.1188    -0.6085 C.ar    
  21 C21            0.9673     3.5005    -0.5755 C.ar    
  22 C22           -0.0520     4.1622     0.0839 C.ar    
  23 C23           -1.0532     3.4447     0.7128 C.ar    
  24 C24           -1.0417     2.0641     0.6789 C.ar    
  25 O25           -2.1942    -0.1058     0.3175 O.2     
  26 H26            0.2758    -9.2092    -0.0073 H       
  27 H27           -1.5596    -9.0577    -1.9934 H       
  28 Cl28           2.2685     1.2883    -1.4361 Cl      
  29 H29            0.8407    -0.4755    -0.1179 H       
  30 H30            0.9850    -4.7417    -0.5282 H       
  31 H31            0.9797    -2.2925    -0.3323 H       
  32 H32           -3.2640    -2.3630     0.3002 H       
  33 H33           -3.2466    -4.8121     0.1021 H       
  34 H34           -1.5108   -11.0842     1.0520 H       
  35 H35           -3.1587   -10.9485     0.3930 H       
  36 H36           -1.7660   -11.0635    -0.7094 H       
  37 H37           -3.1089    -7.3942     0.8124 H       
  38 H38           -3.8952    -8.9361     1.2276 H       
  39 H39           -2.5082    -8.3589     2.1823 H       
  40 H40            1.7481     4.0637    -1.0650 H       
  41 H41           -0.0661     5.2418     0.1083 H       
  42 H42           -1.8475     3.9649     1.2275 H       
  43 H43           -1.8241     1.5048     1.1704 H       
@<TRIPOS>BOND
   1    1    2 1
   2    1   20 ar
   3    1   24 ar
   4    2    3 am
   5    2   29 1
   6    3    4 1
   7    3   25 2
   8    4    7 ar
   9    4    6 ar
  10    5    6 ar
  11    5    9 ar
  12    5   30 1
  13    6   31 1
  14    7    8 ar
  15    7   32 1
  16    8    9 ar
  17    8   33 1
  18    9   10 1
  19   10   13 am
  20   10   12 am
  21   11   12 1
  22   11   14 1
  23   11   15 1
  24   11   26 1
  25   12   18 2
  26   13   14 1
  27   13   19 2
  28   14   27 1
  29   14   15 1
  30   15   16 1
  31   15   17 1
  32   16   34 1
  33   16   35 1
  34   16   36 1
  35   17   37 1
  36   17   38 1
  37   17   39 1
  38   20   21 ar
  39   20   28 1
  40   21   22 ar
  41   21   40 1
  42   22   23 ar
  43   22   41 1
  44   23   24 ar
  45   23   42 1
  46   24   43 1

#	End of record

