#	Name: ASD05430288
#	Creating user name:	WinNT
#	Creation time:	15. 06. 2019 21:00

#	Modifying user name:	WinNT
#	Modification time:	15. 06. 2019 21:00

#	Program:	/corina/corina34_cracker 3.40 0067  02.08.2006

@<TRIPOS>MOLECULE
ASD05430288
  73   79    0    0    0
SMALL
NO_CHARGES


@<TRIPOS>ATOM
   1 C1             0.1997     1.1458    -1.0734 C.ar    
   2 C2             0.0197    -0.0136    -0.3173 C.ar    
   3 C3             1.0246    -0.4598     0.5313 C.ar    
   4 C4             2.2058     0.2405     0.6307 C.ar    
   5 C5             2.3920     1.4017    -0.1242 C.ar    
   6 C6             1.3740     1.8501    -0.9805 C.ar    
   7 C7             4.8840    -0.0071    -0.0892 C.3     
   8 C8             4.8238     1.4960     0.0670 C.2     
   9 C9             3.6531     2.1540    -0.0208 C.2     
  10 C10            6.3015    -0.4234    -0.4921 C.3     
  11 C11            7.1225     0.6304    -1.2444 C.3     
  12 N12            7.1968     1.8402    -0.4250 N.pl3   
  13 C13            6.0820     2.2202     0.3183 C.2     
  14 N14            6.1648     3.1603     1.2035 N.2     
  15 C15            8.2548     3.8317    -1.3262 C.ar    
  16 C16            9.3340     4.2432    -2.0857 C.ar    
  17 C17            7.0402     4.4817    -1.4420 C.ar    
  18 C18            6.9050     5.5431    -2.3172 C.ar    
  19 C19            7.9844     5.9549    -3.0763 C.ar    
  20 C20            9.1988     5.3046    -2.9609 C.ar    
  21 N21           -1.1795    -0.7298    -0.4143 N.pl3   
  22 C22           -2.4351    -0.2202    -0.3145 C.2     
  23 C23           -1.3089    -2.0772    -0.6341 C.2     
  24 C24           -2.6285    -2.3438    -0.6555 C.2     
  25 N25           -3.2915    -1.1945    -0.4583 N.2     
  26 C26           -3.2529    -3.6987    -0.8687 C.3     
  27 Si27           7.8012     7.3884    -4.2599 Si      
  28 C28            8.2124     8.9776    -3.3788 C.3     
  29 C29            8.9620     7.1579    -5.6988 C.3     
  30 C30            8.4005     2.6707    -0.3767 C.3     
  31 C31            8.5697     3.1921     1.0544 C.3     
  32 O32            7.3718     3.8293     1.4861 O.3     
  33 C33            7.0567    -1.3613     0.4513 C.3     
  34 C34            6.5190    -1.8878    -0.8808 C.3     
  35 C35            0.9200     2.8854    -1.9748 C.3     
  36 C36           -0.3807     2.1017    -2.0818 C.3     
  37 C37            6.0468     7.4594    -4.8825 C.3     
  38 H38            0.8791    -1.3572     1.1143 H       
  39 H39            2.9868    -0.1066     1.2909 H       
  40 H40            4.6212    -0.4813     0.8565 H       
  41 H41            4.1804    -0.3206    -0.8604 H       
  42 H42            3.6388     3.2338    -0.0153 H       
  43 H43            8.1276     0.2496    -1.4260 H       
  44 H44            6.6393     0.8610    -2.1938 H       
  45 H45           10.2830     3.7357    -1.9950 H       
  46 H46            6.1969     4.1600    -0.8489 H       
  47 H47            5.9559     6.0505    -2.4081 H       
  48 H48           10.0422     5.6266    -3.5537 H       
  49 H49           -2.6828     0.8171    -0.1443 H       
  50 H50           -0.5064    -2.7880    -0.7648 H       
  51 H51           -3.3861    -4.1929     0.0936 H       
  52 H52           -4.2220    -3.5799    -1.3533 H       
  53 H53           -2.6023    -4.3031    -1.5007 H       
  54 H54            9.2388     8.9360    -3.0146 H       
  55 H55            8.1055     9.8141    -4.0695 H       
  56 H56            7.5332     9.1124    -2.5370 H       
  57 H57            8.7214     6.2281    -6.2143 H       
  58 H58            8.8551     7.9943    -6.3894 H       
  59 H59            9.9884     7.1163    -5.3345 H       
  60 H60            9.2694     2.0745    -0.6554 H       
  61 H61            8.7955     2.3581     1.7189 H       
  62 H62            9.3910     3.9082     1.0837 H       
  63 H63            8.1344    -1.2248     0.5403 H       
  64 H64            6.5462    -1.6784     1.3607 H       
  65 H65            5.6546    -2.5510    -0.8479 H       
  66 H66            7.2429    -2.0974    -1.6683 H       
  67 H67            0.8001     3.8800    -1.5453 H       
  68 H68            1.5007     2.8889    -2.8972 H       
  69 H69           -0.5435     1.6583    -3.0642 H       
  70 H70           -1.2499     2.6462    -1.7130 H       
  71 H71            5.3677     7.5943    -4.0407 H       
  72 H72            5.9400     8.2959    -5.5732 H       
  73 H73            5.8063     6.5297    -5.3980 H       
@<TRIPOS>BOND
   1    1    2 ar
   2    1    6 ar
   3    1   36 1
   4    2    3 ar
   5    2   21 1
   6    3    4 ar
   7    3   38 1
   8    4    5 ar
   9    4   39 1
  10    5    6 ar
  11    5    9 1
  12    6   35 1
  13    7    8 1
  14    7   10 1
  15    7   40 1
  16    7   41 1
  17    8    9 2
  18    8   13 1
  19    9   42 1
  20   10   11 1
  21   10   33 1
  22   10   34 1
  23   11   12 1
  24   11   43 1
  25   11   44 1
  26   12   13 1
  27   12   30 1
  28   13   14 2
  29   14   32 1
  30   15   16 ar
  31   15   17 ar
  32   15   30 1
  33   16   20 ar
  34   16   45 1
  35   17   18 ar
  36   17   46 1
  37   18   19 ar
  38   18   47 1
  39   19   20 ar
  40   19   27 1
  41   20   48 1
  42   21   22 1
  43   21   23 1
  44   22   25 2
  45   22   49 1
  46   23   24 2
  47   23   50 1
  48   24   25 1
  49   24   26 1
  50   26   51 1
  51   26   52 1
  52   26   53 1
  53   27   28 1
  54   27   29 1
  55   27   37 1
  56   28   54 1
  57   28   55 1
  58   28   56 1
  59   29   57 1
  60   29   58 1
  61   29   59 1
  62   30   31 1
  63   30   60 1
  64   31   32 1
  65   31   61 1
  66   31   62 1
  67   33   34 1
  68   33   63 1
  69   33   64 1
  70   34   65 1
  71   34   66 1
  72   35   36 1
  73   35   67 1
  74   35   68 1
  75   36   69 1
  76   36   70 1
  77   37   71 1
  78   37   72 1
  79   37   73 1

#	End of record

