#	Name: ASD01810470
#	Creating user name:	WinNT
#	Creation time:	15. 06. 2019 19:24

#	Modifying user name:	WinNT
#	Modification time:	15. 06. 2019 19:24

#	Program:	/corina/corina34_cracker 3.40 0067  02.08.2006

@<TRIPOS>MOLECULE
ASD01810470
  39   41    0    0    0
SMALL
NO_CHARGES


@<TRIPOS>ATOM
   1 C1            -0.0165     1.3643     0.0095 C.2     
   2 N2             0.0021    -0.0041     0.0020 N.am    
   3 C3             1.1803     2.0944     0.0020 C.2     
   4 C4             2.3785     1.4414    -0.0125 C.2     
   5 C5             2.3938     0.0342    -0.0197 C.2     
   6 C6             1.1734    -0.6717    -0.0119 C.2     
   7 C7             3.6663    -0.6906    -0.0353 C.2     
   8 C8             1.1436     3.6010     0.0095 C.3     
   9 N9             1.2650     4.0869     1.3905 N.3     
  10 O10            4.7162    -0.0763    -0.0421 O.2     
  11 O11            3.6741    -2.0396    -0.0422 O.3     
  12 C12            1.4711     5.5405     1.4206 C.3     
  13 C13            1.7377     5.9895     2.8591 C.3     
  14 C14            0.5439     5.6061     3.7379 C.3     
  15 C15            0.3208     4.0938     3.6508 C.3     
  16 C16            0.0952     3.6997     2.1893 C.3     
  17 C17           -1.1668    -0.7059     0.0090 C.2     
  18 C18           -2.3584    -0.0668     0.0229 C.2     
  19 C19           -2.4076     1.3337     0.0304 C.2     
  20 C20           -1.2445     2.0466     0.0190 C.2     
  21 *21            0.8360     6.0056     5.2174 Du      
  22 O22            1.1773    -1.8911    -0.0177 O.2     
  23 H23            3.3041     1.9979    -0.0187 H       
  24 H24            1.9709     3.9875    -0.5857 H       
  25 H25            0.1997     3.9435    -0.4146 H       
  26 H26            4.5382    -2.4735    -0.0525 H       
  27 H27            2.3254     5.7993     0.7951 H       
  28 H28            0.5797     6.0416     1.0431 H       
  29 H29            2.6368     5.4993     3.2326 H       
  30 H30            1.8751     7.0706     2.8834 H       
  31 H31           -0.3478     6.1266     3.3884 H       
  32 H32            1.1976     3.5738     4.0367 H       
  33 H33           -0.5541     3.8204     4.2406 H       
  34 H34           -0.7897     4.2094     1.8082 H       
  35 H35           -0.0497     2.6215     2.1221 H       
  36 H36           -1.1407    -1.7856     0.0030 H       
  37 H37           -3.2752    -0.6376     0.0279 H       
  38 H38           -3.3590     1.8447     0.0414 H       
  39 H39           -1.2674     3.1263     0.0246 H       
@<TRIPOS>BOND
   1    1    2 1
   2    1    3 2
   3    1   20 1
   4    2   17 1
   5    2    6 am
   6    3    4 1
   7    3    8 1
   8    4    5 2
   9    4   23 1
  10    5    6 1
  11    5    7 1
  12    6   22 2
  13    7   10 2
  14    7   11 1
  15    8    9 1
  16    8   24 1
  17    8   25 1
  18    9   12 1
  19    9   16 1
  20   11   26 1
  21   12   13 1
  22   12   27 1
  23   12   28 1
  24   13   14 1
  25   13   29 1
  26   13   30 1
  27   14   15 1
  28   14   21 1
  29   14   31 1
  30   15   16 1
  31   15   32 1
  32   15   33 1
  33   16   34 1
  34   16   35 1
  35   17   18 2
  36   17   36 1
  37   18   19 1
  38   18   37 1
  39   19   20 2
  40   19   38 1
  41   20   39 1

#	End of record

