#	Name: ASD01903109
#	Creating user name:	WinNT
#	Creation time:	15. 06. 2019 19:54

#	Modifying user name:	WinNT
#	Modification time:	15. 06. 2019 19:54

#	Program:	/corina/corina34_cracker 3.40 0067  02.08.2006

@<TRIPOS>MOLECULE
ASD01903109
  44   48    0    0    0
SMALL
NO_CHARGES


@<TRIPOS>ATOM
   1 C1            -0.3583     1.2734    -0.1144 C.2     
   2 C2            -0.1325    -0.2419    -0.1803 C.3     
   3 C3             0.5881    -0.4606    -1.5477 C.3     
   4 C4             1.9681     0.2330    -1.3470 C.3     
   5 C5             1.8931     0.7783     0.1138 C.3     
   6 C6             0.8090     1.8612     0.0548 C.2     
   7 C7            -0.0882     0.4071    -2.5845 C.2     
   8 N8             0.7279     1.4098    -2.9280 N.am    
   9 C9             1.9066     1.4085    -2.2955 C.2     
  10 O10            2.7890     2.2238    -2.4578 O.2     
  11 O11           -1.1985     0.2227    -3.0350 O.2     
  12 C12            0.3762     2.3838    -3.8753 C.ar    
  13 C13            0.6709     2.1849    -5.2183 C.ar    
  14 C14            0.3246     3.1438    -6.1506 C.ar    
  15 C15           -0.3180     4.3061    -5.7447 C.ar    
  16 C16           -0.6123     4.5042    -4.4015 C.ar    
  17 C17           -0.2712     3.5434    -3.4710 C.ar    
  18 Cl18           1.4747     0.7319    -5.7249 Cl      
  19 N19           -0.6686     5.2779    -6.6885 N.am    
  20 C20           -1.0708     4.9069    -7.9201 C.2     
  21 C21           -1.5402     5.9283    -8.8849 C.ar    
  22 N22           -1.5623     7.2072    -8.5307 N.ar    
  23 C23           -1.9717     8.1450    -9.3570 C.ar    
  24 C24           -2.3984     7.8292   -10.6368 C.ar    
  25 C25           -2.3916     6.5053   -11.0481 C.ar    
  26 C26           -1.9494     5.5390   -10.1586 C.ar    
  27 O27           -1.0485     3.7345    -8.2392 O.2     
  28 C28            1.0824    -0.3758     0.8086 C.3     
  29 H29           -1.3116     1.7742    -0.1973 H       
  30 H30           -1.0037    -0.8685     0.0110 H       
  31 H31            0.6658    -1.5103    -1.8312 H       
  32 H32            2.8169    -0.4294    -1.5171 H       
  33 H33            2.8401     1.0677     0.5693 H       
  34 H34            0.9742     2.9253     0.1374 H       
  35 H35            0.5538     2.9898    -7.1947 H       
  36 H36           -1.1120     5.4081    -4.0859 H       
  37 H37           -0.5005     3.6976    -2.4269 H       
  38 H38           -0.6221     6.2186    -6.4563 H       
  39 H39           -1.9757     9.1754    -9.0334 H       
  40 H40           -2.7333     8.6068   -11.3073 H       
  41 H41           -2.7197     6.2336   -12.0405 H       
  42 H42           -1.9307     4.4980   -10.4456 H       
  43 H43            0.8121    -0.1357     1.8369 H       
  44 H44            1.5805    -1.3421     0.7295 H       
@<TRIPOS>BOND
   1    1    2 1
   2    1    6 2
   3    1   29 1
   4    2    3 1
   5    2   28 1
   6    2   30 1
   7    3    4 1
   8    3    7 1
   9    3   31 1
  10    4    5 1
  11    4    9 1
  12    4   32 1
  13    5    6 1
  14    5   28 1
  15    5   33 1
  16    6   34 1
  17    7    8 am
  18    7   11 2
  19    8    9 am
  20    8   12 1
  21    9   10 2
  22   12   13 ar
  23   12   17 ar
  24   13   14 ar
  25   13   18 1
  26   14   15 ar
  27   14   35 1
  28   15   16 ar
  29   15   19 1
  30   16   17 ar
  31   16   36 1
  32   17   37 1
  33   19   20 am
  34   19   38 1
  35   20   21 1
  36   20   27 2
  37   21   22 ar
  38   21   26 ar
  39   22   23 ar
  40   23   24 ar
  41   23   39 1
  42   24   25 ar
  43   24   40 1
  44   25   26 ar
  45   25   41 1
  46   26   42 1
  47   28   43 1
  48   28   44 1

#	End of record

