#	Name: ASD01209260
#	Creating user name:	WinNT
#	Creation time:	15. 06. 2019 19:11

#	Modifying user name:	WinNT
#	Modification time:	15. 06. 2019 19:11

#	Program:	/corina/corina34_cracker 3.40 0067  02.08.2006

@<TRIPOS>MOLECULE
ASD01209260
  74   77    0    0    0
SMALL
NO_CHARGES


@<TRIPOS>ATOM
   1 C1            -0.0957     1.4814     0.4638 C.3     
   2 C2            -0.3914     0.0820     0.9382 C.ar    
   3 C3            -1.0805    -0.7939     0.1204 C.ar    
   4 C4            -1.3518    -2.0776     0.5556 C.ar    
   5 C5            -0.9335    -2.4856     1.8084 C.ar    
   6 C6            -0.2436    -1.6100     2.6259 C.ar    
   7 C7             0.0314    -0.3276     2.1889 C.ar    
   8 S8            -1.2803    -4.1215     2.3636 S.o2    
   9 O9            -1.2996    -4.0140     3.7804 O.2     
  10 O10           -2.4451    -4.4971     1.6415 O.2     
  11 C11            0.1487    -5.0969     1.8186 C.3     
  12 C12            0.1013    -6.6088     2.0487 C.3     
  13 C13           -0.0531    -6.0449     0.6348 C.3     
  14 C14            1.3953     1.6989     0.4389 C.2     
  15 O15            2.1391     0.8529     0.8882 O.2     
  16 N16            1.9022     2.8336    -0.0826 N.am    
  17 C17            3.2771     3.0615    -0.0518 C.ar    
  18 C18            4.1578     1.9948     0.1031 C.ar    
  19 N19            5.4589     2.2145     0.1314 N.ar    
  20 C20            5.9258     3.4458     0.0128 C.ar    
  21 C21            5.0537     4.5077    -0.1407 C.ar    
  22 N22            3.7496     4.2946    -0.1754 N.ar    
  23 C23            7.4121     3.6925     0.0456 C.3     
  24 P24            8.0806     3.6014    -1.6479 P.3     
  25 O25            7.7112     2.3032    -2.2550 O.2     
  26 O26            7.4693     4.8004    -2.5315 O.3     
  27 C27            7.7187     4.9410    -3.9315 C.3     
  28 C28            6.9911     6.1799    -4.4574 C.3     
  29 O29            9.6844     3.7342    -1.5996 O.3     
  30 C30           10.5120     3.5965    -2.7564 C.3     
  31 C31           11.9782     3.7795    -2.3593 C.3     
  32 C32           -0.7424     2.4899     1.4155 C.3     
  33 C33           -2.2633     2.3280     1.3735 C.3     
  34 C34           -2.9026     3.2128     2.4481 C.3     
  35 C35           -4.4263     3.1047     2.3468 C.3     
  36 O36           -4.8435     3.4865     1.0344 O.3     
  37 C37           -4.3145     2.6647    -0.0081 C.3     
  38 C38           -2.7862     2.7551    -0.0015 C.3     
  39 H39           -0.4996     1.6179    -0.5394 H       
  40 H40           -1.4073    -0.4752    -0.8584 H       
  41 H41           -1.8908    -2.7618    -0.0830 H       
  42 H42            0.0829    -1.9286     3.6048 H       
  43 H43            0.5705     0.3565     2.8276 H       
  44 H44            1.1167    -4.6041     1.9099 H       
  45 H45            1.0381    -7.1106     2.2909 H       
  46 H46           -0.7886    -7.0173     2.5275 H       
  47 H47           -1.0445    -6.0825     0.1834 H       
  48 H48            0.7822    -6.1758    -0.0532 H       
  49 H49            1.3103     3.4917    -0.4794 H       
  50 H50            3.7769     0.9889     0.2003 H       
  51 H51            5.4387     5.5121    -0.2365 H       
  52 H52            7.6072     4.6814     0.4605 H       
  53 H53            7.8922     2.9366     0.6669 H       
  54 H54            8.7900     5.0498    -4.1006 H       
  55 H55            7.3561     4.0568    -4.4558 H       
  56 H56            5.9198     6.0711    -4.2883 H       
  57 H57            7.3537     7.0641    -3.9331 H       
  58 H58            7.1814     6.2871    -5.5253 H       
  59 H59           10.3731     2.6047    -3.1866 H       
  60 H60           10.2376     4.3530    -3.4916 H       
  61 H61           12.1171     4.7714    -1.9292 H       
  62 H62           12.2526     3.0230    -1.6242 H       
  63 H63           12.6094     3.6745    -3.2417 H       
  64 H64           -0.3860     2.3122     2.4301 H       
  65 H65           -0.4761     3.5014     1.1088 H       
  66 H66           -2.5242     1.2857     1.5567 H       
  67 H67           -2.5786     2.8799     3.4341 H       
  68 H68           -2.5999     4.2486     2.2946 H       
  69 H69           -4.7315     2.0764     2.5405 H       
  70 H70           -4.8872     3.7652     3.0813 H       
  71 H71           -4.6182     1.6306     0.1547 H       
  72 H72           -4.6948     3.0082    -0.9701 H       
  73 H73           -2.4812     3.7816    -0.2045 H       
  74 H74           -2.3790     2.0949    -0.7672 H       
@<TRIPOS>BOND
   1    1    2 1
   2    1   14 1
   3    1   32 1
   4    1   39 1
   5    2    3 ar
   6    2    7 ar
   7    3    4 ar
   8    3   40 1
   9    4    5 ar
  10    4   41 1
  11    5    6 ar
  12    5    8 1
  13    6    7 ar
  14    6   42 1
  15    7   43 1
  16    8    9 2
  17    8   10 2
  18    8   11 1
  19   11   12 1
  20   11   13 1
  21   11   44 1
  22   12   13 1
  23   12   45 1
  24   12   46 1
  25   13   47 1
  26   13   48 1
  27   14   15 2
  28   14   16 am
  29   16   17 1
  30   16   49 1
  31   17   18 ar
  32   17   22 ar
  33   18   19 ar
  34   18   50 1
  35   19   20 ar
  36   20   21 ar
  37   20   23 1
  38   21   22 ar
  39   21   51 1
  40   23   24 1
  41   23   52 1
  42   23   53 1
  43   24   25 2
  44   24   26 1
  45   24   29 1
  46   26   27 1
  47   27   28 1
  48   27   54 1
  49   27   55 1
  50   28   56 1
  51   28   57 1
  52   28   58 1
  53   29   30 1
  54   30   31 1
  55   30   59 1
  56   30   60 1
  57   31   61 1
  58   31   62 1
  59   31   63 1
  60   32   33 1
  61   32   64 1
  62   32   65 1
  63   33   34 1
  64   33   38 1
  65   33   66 1
  66   34   35 1
  67   34   67 1
  68   34   68 1
  69   35   36 1
  70   35   69 1
  71   35   70 1
  72   36   37 1
  73   37   38 1
  74   37   71 1
  75   37   72 1
  76   38   73 1
  77   38   74 1

#	End of record

