#	Name: ASD02690032
#	Creating user name:	WinNT
#	Creation time:	15. 06. 2019 20:26

#	Modifying user name:	WinNT
#	Modification time:	15. 06. 2019 20:26

#	Program:	/corina/corina34_cracker 3.40 0067  02.08.2006

@<TRIPOS>MOLECULE
ASD02690032
  62   65    0    0    0
SMALL
NO_CHARGES


@<TRIPOS>ATOM
   1 C1             0.0716     1.2988    -0.0216 C.2     
   2 C2             0.1383    -0.2007    -0.1558 C.3     
   3 O3             1.0894     1.9426     0.0754 O.2     
   4 O4            -1.1184     1.9198    -0.0154 O.3     
   5 N5            -2.4325     3.2379     2.1725 N.3     
   6 C6            -1.2648     3.6425     2.9657 C.3     
   7 C7            -1.2741     2.9011     4.3044 C.3     
   8 C8            -2.5656     3.2330     5.0571 C.3     
   9 C9            -3.7665     2.8464     4.1894 C.3     
  10 C10           -3.6849     3.5894     2.8540 C.3     
  11 N11           -2.2806     3.6911    -1.9971 N.am    
  12 C12           -1.0417     4.0061    -1.2729 C.3     
  13 C13           -1.1068     3.3657     0.1172 C.3     
  14 C14           -2.3833     3.8239     0.8264 C.3     
  15 C15           -3.6053     3.3670     0.0264 C.3     
  16 C16           -3.5685     4.0075    -1.3648 C.3     
  17 C17           -2.6083     2.4592     6.3496 C.2     
  18 C18           -3.3999     2.9622     7.4817 C.ar    
  19 C19           -3.4416     2.2461     8.6833 C.ar    
  20 C20           -4.1849     2.7232     9.7403 C.ar    
  21 C21           -4.8914     3.9104     9.6155 C.ar    
  22 C22           -4.8546     4.6249     8.4270 C.ar    
  23 C23           -4.1102     4.1622     7.3644 C.ar    
  24 O24           -1.9896     1.4215     6.4558 O.2     
  25 F25           -5.6188     4.3727    10.6558 F       
  26 C26           -2.2364     3.1278    -3.2207 C.2     
  27 C27           -0.9369     2.9329    -3.8983 C.ar    
  28 C28           -0.6859     1.7576    -4.6082 C.ar    
  29 C29            0.5287     1.5822    -5.2385 C.ar    
  30 C30            1.4970     2.5679    -5.1677 C.ar    
  31 C31            1.2546     3.7353    -4.4657 C.ar    
  32 C32            0.0421     3.9257    -3.8357 C.ar    
  33 O33           -3.2650     2.7801    -3.7672 O.2     
  34 H34            1.1803    -0.5204    -0.1458 H       
  35 H35           -0.3919    -0.6639     0.6763 H       
  36 H36           -0.3253    -0.5024    -1.0951 H       
  37 H37           -0.3531     3.3971     2.4210 H       
  38 H38           -1.3023     4.7169     3.1452 H       
  39 H39           -1.2227     1.8270     4.1260 H       
  40 H40           -0.4157     3.2133     4.8993 H       
  41 H41           -2.5988     4.3015     5.2699 H       
  42 H42           -3.7543     1.7715     4.0092 H       
  43 H43           -4.6888     3.1196     4.7021 H       
  44 H44           -3.7111     4.6641     3.0341 H       
  45 H45           -4.5310     3.3055     2.2281 H       
  46 H46           -0.1873     3.6070    -1.8194 H       
  47 H47           -0.9416     5.0869    -1.1729 H       
  48 H48           -0.2372     3.6706     0.6994 H       
  49 H49           -2.3856     4.9112     0.9033 H       
  50 H50           -3.5905     2.2816    -0.0724 H       
  51 H51           -4.5143     3.6734     0.5440 H       
  52 H52           -3.6745     5.0884    -1.2723 H       
  53 H53           -4.3814     3.6092    -1.9720 H       
  54 H54           -2.8926     1.3212     8.7815 H       
  55 H55           -4.2180     2.1715    10.6682 H       
  56 H56           -5.4072     5.5484     8.3362 H       
  57 H57           -4.0788     4.7217     6.4411 H       
  58 H58           -1.4407     0.9871    -4.6635 H       
  59 H59            0.7242     0.6733    -5.7881 H       
  60 H60            2.4464     2.4254    -5.6624 H       
  61 H61            2.0146     4.5008    -4.4143 H       
  62 H62           -0.1475     4.8393    -3.2917 H       
@<TRIPOS>BOND
   1    1    2 1
   2    1    3 2
   3    1    4 1
   4    2   34 1
   5    2   35 1
   6    2   36 1
   7    4   13 1
   8    5    6 1
   9    5   10 1
  10    5   14 1
  11    6    7 1
  12    6   37 1
  13    6   38 1
  14    7    8 1
  15    7   39 1
  16    7   40 1
  17    8    9 1
  18    8   17 1
  19    8   41 1
  20    9   10 1
  21    9   42 1
  22    9   43 1
  23   10   44 1
  24   10   45 1
  25   11   12 1
  26   11   16 1
  27   11   26 am
  28   12   13 1
  29   12   46 1
  30   12   47 1
  31   13   14 1
  32   13   48 1
  33   14   15 1
  34   14   49 1
  35   15   16 1
  36   15   50 1
  37   15   51 1
  38   16   52 1
  39   16   53 1
  40   17   18 1
  41   17   24 2
  42   18   19 ar
  43   18   23 ar
  44   19   20 ar
  45   19   54 1
  46   20   21 ar
  47   20   55 1
  48   21   22 ar
  49   21   25 1
  50   22   23 ar
  51   22   56 1
  52   23   57 1
  53   26   27 1
  54   26   33 2
  55   27   28 ar
  56   27   32 ar
  57   28   29 ar
  58   28   58 1
  59   29   30 ar
  60   29   59 1
  61   30   31 ar
  62   30   60 1
  63   31   32 ar
  64   31   61 1
  65   32   62 1

#	End of record

