#	Name: ASD01884220
#	Creating user name:	WinNT
#	Creation time:	15. 06. 2019 19:47

#	Modifying user name:	WinNT
#	Modification time:	15. 06. 2019 19:47

#	Program:	/corina/corina34_cracker 3.40 0067  02.08.2006

@<TRIPOS>MOLECULE
ASD01884220
  35   38    0    0    0
SMALL
NO_CHARGES


@<TRIPOS>ATOM
   1 C1            -0.0168     1.3909     0.0097 C.ar    
   2 C2             0.0021    -0.0041     0.0020 C.ar    
   3 C3            -1.1687    -0.7210     0.0094 C.ar    
   4 C4            -2.4131    -0.0704     0.0252 C.ar    
   5 C5            -2.4160     1.3263     0.0332 C.ar    
   6 C6            -1.2419     2.0535     0.0308 C.ar    
   7 C7             1.2523     2.1591     0.0017 C.ar    
   8 N8            -3.6712    -0.6450     0.0342 N.am    
   9 C9            -4.7415     0.1550     0.0492 C.2     
  10 S10           -4.1169     1.8126     0.0526 S.3     
  11 O11           -5.9098    -0.1865     0.0591 O.2     
  12 C12           -3.8273    -2.1016     0.0270 C.3     
  13 C13           -3.8673    -2.6174     1.4669 C.3     
  14 C14           -4.1436    -4.1077     1.6760 C.3     
  15 C15           -2.7395    -3.5491     1.9151 C.3     
  16 C16            2.2620     1.8532     0.9150 C.ar    
  17 C17            3.4425     2.5730     0.9015 C.ar    
  18 C18            3.6220     3.5935    -0.0140 C.ar    
  19 C19            2.6233     3.9004    -0.9210 C.ar    
  20 C20            1.4431     3.1851    -0.9216 C.ar    
  21 F21            2.0865     0.8568     1.8102 F       
  22 H22            0.9478    -0.5255    -0.0102 H       
  23 H23           -1.1322    -1.8003     0.0025 H       
  24 H24           -1.2736     3.1330     0.0375 H       
  25 H25           -4.7559    -2.3650    -0.4793 H       
  26 H26           -2.9862    -2.5545    -0.4980 H       
  27 H27           -4.2696    -1.9226     2.2041 H       
  28 H28           -4.7274    -4.3933     2.5510 H       
  29 H29           -4.2969    -4.7206     0.7878 H       
  30 H30           -1.9690    -3.7945     1.1842 H       
  31 H31           -2.3994    -3.4673     2.9475 H       
  32 H32            4.2254     2.3381     1.6074 H       
  33 H33            4.5454     4.1535    -0.0209 H       
  34 H34            2.7693     4.6991    -1.6331 H       
  35 H35            0.6650     3.4262    -1.6307 H       
@<TRIPOS>BOND
   1    1    2 ar
   2    1    7 1
   3    1    6 ar
   4    2    3 ar
   5    2   22 1
   6    3    4 ar
   7    3   23 1
   8    4    5 ar
   9    4    8 1
  10    5    6 ar
  11    5   10 1
  12    6   24 1
  13    7   16 ar
  14    7   20 ar
  15    8    9 am
  16    8   12 1
  17    9   10 1
  18    9   11 2
  19   12   13 1
  20   12   25 1
  21   12   26 1
  22   13   14 1
  23   13   15 1
  24   13   27 1
  25   14   15 1
  26   14   28 1
  27   14   29 1
  28   15   30 1
  29   15   31 1
  30   16   17 ar
  31   16   21 1
  32   17   18 ar
  33   17   32 1
  34   18   19 ar
  35   18   33 1
  36   19   20 ar
  37   19   34 1
  38   20   35 1

#	End of record

