#	Name: ASD01200156
#	Creating user name:	WinNT
#	Creation time:	15. 06. 2019 19:08

#	Modifying user name:	WinNT
#	Modification time:	15. 06. 2019 19:08

#	Program:	/corina/corina34_cracker 3.40 0067  02.08.2006

@<TRIPOS>MOLECULE
ASD01200156
  54   57    0    0    0
SMALL
NO_CHARGES


@<TRIPOS>ATOM
   1 C1            -0.0196     1.3722    -0.0082 C.ar    
   2 C2             0.0019    -0.0110    -0.0155 C.ar    
   3 C3             1.2098    -0.6889    -0.0248 C.ar    
   4 C4             2.3918     0.0142    -0.0267 C.ar    
   5 C5             2.3818     1.4113    -0.0194 C.ar    
   6 C6             3.8416    -0.4018    -0.0353 C.3     
   7 N7             4.6249     0.8389    -0.0322 N.am    
   8 C8             3.7795     1.8839    -0.0231 C.2     
   9 O9             4.1180     3.0514    -0.0184 O.2     
  10 S10            4.2180    -1.3803     1.4451 S.3     
  11 C11            6.0874     0.9247    -0.0378 C.3     
  12 C12            6.5830     0.9612    -1.4605 C.ar    
  13 C13            3.6292    -3.0372     0.9996 C.3     
  14 C14            3.8753    -3.9830     2.1468 C.2     
  15 O15            4.3964    -3.5791     3.1646 O.2     
  16 N16            3.5160    -5.2777     2.0417 N.am    
  17 C17            3.8390    -6.1727     3.0542 C.ar    
  18 N18            4.5839    -5.7662     4.0723 N.ar    
  19 C19            4.9149    -6.5785     5.0541 C.ar    
  20 C20            4.4856    -7.9071     5.0500 C.ar    
  21 C21            3.6955    -8.3640     3.9840 C.ar    
  22 C22            3.3705    -7.4826     2.9876 C.ar    
  23 C23            6.7399     2.1740    -2.1057 C.ar    
  24 C24            7.1941     2.2102    -3.4099 C.ar    
  25 C25            7.4929     1.0283    -4.0721 C.ar    
  26 C26            7.3346    -0.1872    -3.4225 C.ar    
  27 C27            6.8855    -0.2177    -2.1164 C.ar    
  28 O28            7.9395     1.0613    -5.3552 O.3     
  29 C29            1.1606     2.0872    -0.0101 C.ar    
  30 C30            4.8573    -8.8170     6.1494 C.2     
  31 O31            5.6167    -8.3680     7.1679 O.3     
  32 O32            4.4788    -9.9715     6.1369 O.2     
  33 C33            8.2274    -0.1940    -5.9744 C.3     
  34 H34           -0.9646     1.8950    -0.0055 H       
  35 H35           -0.9259    -0.5640    -0.0137 H       
  36 H36            1.2234    -1.7688    -0.0302 H       
  37 H37            4.0599    -0.9804    -0.9329 H       
  38 H38            6.4001     1.8318     0.4793 H       
  39 H39            6.5043     0.0549     0.4700 H       
  40 H40            2.5615    -2.9976     0.7840 H       
  41 H41            4.1652    -3.3884     0.1179 H       
  42 H42            3.0321    -5.5848     1.2591 H       
  43 H43            5.5234    -6.2145     5.8687 H       
  44 H44            3.3481    -9.3861     3.9523 H       
  45 H45            2.7637    -7.8027     2.1535 H       
  46 H46            6.5069     3.0938    -1.5898 H       
  47 H47            7.3162     3.1577    -3.9135 H       
  48 H48            7.5666    -1.1086    -3.9359 H       
  49 H49            6.7621    -1.1638    -1.6103 H       
  50 H50            1.1394     3.1670    -0.0047 H       
  51 H51            5.8346    -9.0012     7.8655 H       
  52 H52            9.0027    -0.7094    -5.4076 H       
  53 H53            7.3249    -0.8050    -5.9940 H       
  54 H54            8.5741    -0.0253    -6.9939 H       
@<TRIPOS>BOND
   1    1    2 ar
   2    1   29 ar
   3    1   34 1
   4    2    3 ar
   5    2   35 1
   6    3    4 ar
   7    3   36 1
   8    4    5 ar
   9    4    6 1
  10    5   29 ar
  11    5    8 1
  12    6    7 1
  13    6   10 1
  14    6   37 1
  15    7    8 am
  16    7   11 1
  17    8    9 2
  18   10   13 1
  19   11   12 1
  20   11   38 1
  21   11   39 1
  22   12   23 ar
  23   12   27 ar
  24   13   14 1
  25   13   40 1
  26   13   41 1
  27   14   15 2
  28   14   16 am
  29   16   17 1
  30   16   42 1
  31   17   18 ar
  32   17   22 ar
  33   18   19 ar
  34   19   20 ar
  35   19   43 1
  36   20   21 ar
  37   20   30 1
  38   21   22 ar
  39   21   44 1
  40   22   45 1
  41   23   24 ar
  42   23   46 1
  43   24   25 ar
  44   24   47 1
  45   25   26 ar
  46   25   28 1
  47   26   27 ar
  48   26   48 1
  49   27   49 1
  50   28   33 1
  51   29   50 1
  52   30   31 1
  53   30   32 2
  54   31   51 1
  55   33   52 1
  56   33   53 1
  57   33   54 1

#	End of record

