#	Name: ASD01916382
#	Creating user name:	WinNT
#	Creation time:	15. 06. 2019 20:07

#	Modifying user name:	WinNT
#	Modification time:	15. 06. 2019 20:07

#	Program:	/corina/corina34_cracker 3.40 0067  02.08.2006

@<TRIPOS>MOLECULE
ASD01916382
  32   34    0    0    0
SMALL
NO_CHARGES


@<TRIPOS>ATOM
   1 N1            -0.0169     1.3945     0.0097 N.pl3   
   2 N2             0.0021    -0.0041     0.0020 N.2     
   3 C3             1.2312    -0.4347    -0.0120 C.2     
   4 C4             2.1113     0.7294    -0.0142 C.ar    
   5 C5             3.5004     0.8986    -0.0272 C.ar    
   6 C6             4.0269     2.1576    -0.0261 C.ar    
   7 C7             3.1970     3.2721    -0.0118 C.ar    
   8 C8             1.8383     3.1325     0.0016 C.ar    
   9 C9             1.2720     1.8600    -0.0001 C.ar    
  10 C10           -1.2215     2.2281     0.0202 C.3     
  11 C11           -1.6334     2.5110     1.4663 C.3     
  12 C12           -2.8438     3.3486     1.4768 C.1     
  13 C13           -3.8092     4.0166     1.4853 C.1     
  14 C14           -4.9867     4.8315     1.4955 C.ar    
  15 C15           -5.5498     5.2193     2.7119 C.ar    
  16 C16           -6.6874     6.0065     2.7051 C.ar    
  17 C17           -7.2267     6.3816     1.4822 C.ar    
  18 C18           -6.6175     5.9617     0.3142 C.ar    
  19 N19           -5.5314     5.2168     0.3473 N.ar    
  20 H20            1.5433    -1.4685    -0.0200 H       
  21 H21            4.1522     0.0375    -0.0376 H       
  22 H22            5.0988     2.2890    -0.0362 H       
  23 H23            3.6316     4.2608    -0.0108 H       
  24 H24            1.2045     4.0069     0.0134 H       
  25 H25           -1.0165     3.1693    -0.4899 H       
  26 H26           -2.0294     1.7056    -0.4921 H       
  27 H27           -1.8384     1.5698     1.9764 H       
  28 H28           -0.8256     3.0335     1.9786 H       
  29 H29           -5.1040     4.9090     3.6455 H       
  30 H30           -7.1459     6.3220     3.6306 H       
  31 H31           -8.1144     6.9955     1.4435 H       
  32 H32           -7.0354     6.2519    -0.6385 H       
@<TRIPOS>BOND
   1    1    2 1
   2    1    9 1
   3    1   10 1
   4    2    3 2
   5    3    4 1
   6    3   20 1
   7    4    5 ar
   8    4    9 ar
   9    5    6 ar
  10    5   21 1
  11    6    7 ar
  12    6   22 1
  13    7    8 ar
  14    7   23 1
  15    8    9 ar
  16    8   24 1
  17   10   11 1
  18   10   25 1
  19   10   26 1
  20   11   12 1
  21   11   27 1
  22   11   28 1
  23   12   13 3
  24   13   14 1
  25   14   15 ar
  26   14   19 ar
  27   15   16 ar
  28   15   29 1
  29   16   17 ar
  30   16   30 1
  31   17   18 ar
  32   17   31 1
  33   18   19 ar
  34   18   32 1

#	End of record

