#	Name: ASD06600052
#	Creating user name:	WinNT
#	Creation time:	15. 06. 2019 21:07

#	Modifying user name:	WinNT
#	Modification time:	15. 06. 2019 21:07

#	Program:	/corina/corina34_cracker 3.40 0067  02.08.2006

@<TRIPOS>MOLECULE
ASD06600052
 301  303    0    0    0
SMALL
NO_CHARGES


@<TRIPOS>ATOM
   1 C1            -8.6568    -6.7940   -18.1570 C.2     
   2 O2            -8.8120    -7.9475   -17.8158 O.2     
   3 N3            -6.5891    -7.5769   -19.1575 N.am    
   4 C4            -7.4310    -6.3980   -18.9390 C.3     
   5 C5            -7.8535    -5.8157   -20.2893 C.3     
   6 C6            -6.6374    -5.3073   -21.0198 C.2     
   7 C7            -6.2529    -5.6636   -22.2603 C.2     
   8 N8            -5.1052    -4.9697   -22.5338 N.pl3   
   9 C9            -4.8280    -4.2130   -21.4502 C.2     
  10 N10           -5.7513    -4.4163   -20.5507 N.2     
  11 C11          -11.8920    -5.2813   -17.3772 C.2     
  12 O12          -11.7064    -4.3567   -18.1399 O.2     
  13 N13           -9.5834    -5.8675   -17.8416 N.am    
  14 C14          -10.7780    -6.2537   -17.0866 C.3     
  15 C15          -10.4630    -6.2358   -15.5895 C.3     
  16 C16          -15.1467    -4.4806   -15.9181 C.2     
  17 O17          -15.0411    -5.2979   -15.0283 O.2     
  18 N18          -13.0946    -5.4391   -16.7896 N.am    
  19 C19          -14.1776    -4.4938   -17.0721 C.3     
  20 C20          -14.9081    -4.9212   -18.3467 C.3     
  21 C21          -13.9618    -4.7976   -19.5427 C.3     
  22 C22          -15.3679    -6.3739   -18.2082 C.3     
  23 C23          -18.3981    -2.9394   -15.2733 C.2     
  24 O24          -18.4597    -2.4701   -16.3900 O.2     
  25 N25          -16.1307    -3.5607   -15.8750 N.am    
  26 C26          -17.1310    -3.6076   -14.8056 C.3     
  27 C27          -16.5943    -2.8773   -13.5729 C.3     
  28 C28          -15.3977    -3.6168   -13.0323 C.2     
  29 C29          -14.1759    -3.0938   -12.8153 C.2     
  30 N30          -13.3943    -4.1040   -12.3231 N.pl3   
  31 C31          -14.1663    -5.2100   -12.2564 C.2     
  32 N32          -15.3645    -4.9099   -12.6774 N.2     
  33 C33          -21.4672    -1.7106   -13.7131 C.2     
  34 O34          -21.0315    -1.8783   -12.5937 O.2     
  35 N35          -19.4630    -2.8632   -14.4508 N.am    
  36 C36          -20.6949    -2.2136   -14.9054 C.3     
  37 C37          -21.5482    -3.2219   -15.6774 C.3     
  38 C38          -24.8547    -0.4891   -13.0842 C.2     
  39 O39          -25.2324    -0.7984   -14.1945 O.2     
  40 N40          -22.6420    -1.0744   -13.8907 N.am    
  41 C41          -23.3927    -0.5855   -12.7316 C.3     
  42 C42          -22.8721     0.7969   -12.3329 C.3     
  43 C43          -21.4450     0.6798   -11.8631 C.ar    
  44 C44          -20.4078     0.8050   -12.7688 C.ar    
  45 C45          -19.0987     0.6977   -12.3407 C.ar    
  46 C46          -18.8252     0.4646   -11.0007 C.ar    
  47 O47          -17.5383     0.3591   -10.5770 O.3     
  48 C48          -19.8677     0.3398   -10.0939 C.ar    
  49 C49          -21.1749     0.4531   -10.5261 C.ar    
  50 C50          -27.8274     1.0585   -11.6244 C.2     
  51 O51          -27.1772     1.6517   -10.7900 O.2     
  52 N52          -25.7426    -0.0592   -12.1659 N.am    
  53 C53          -27.1638     0.0344   -12.5087 C.3     
  54 C54          -27.8295    -1.3273   -12.3004 C.3     
  55 C55          -27.2411    -2.3387   -13.2862 C.3     
  56 C56          -27.9069    -3.7005   -13.0779 C.3     
  57 N57          -27.3435    -4.6689   -14.0218 N.pl3   
  58 C58          -27.7905    -5.9691   -14.0215 C.2     
  59 N59          -28.7155    -6.3400   -13.1815 N.2     
  60 N60          -27.2618    -6.8779   -14.9073 N.pl3   
  61 C61          -31.2595     2.0019   -10.7913 C.2     
  62 O62          -31.7232     1.0444   -11.3737 O.2     
  63 N63          -29.1434     1.3152   -11.7609 N.am    
  64 C64          -29.7886     2.3107   -10.9012 C.3     
  65 C65          -29.6038     3.7037   -11.5066 C.3     
  66 C66          -28.1178     4.0681   -11.5033 C.3     
  67 C67          -27.9330     5.4611   -12.1087 C.3     
  68 N68          -26.5102     5.8101   -12.1056 N.pl3   
  69 C69          -26.0989     7.0233   -12.6047 C.2     
  70 N70          -26.9749     7.8630   -13.0806 N.2     
  71 N71          -24.7637     7.3508   -12.6018 N.pl3   
  72 C72          -34.2450     3.7521    -9.6140 C.2     
  73 O73          -33.6479     4.7998    -9.4845 O.2     
  74 N74          -32.0596     2.7896   -10.0458 N.am    
  75 C75          -33.4895     2.4894    -9.9390 C.3     
  76 C76          -33.7131     1.4611    -8.8283 C.3     
  77 C77          -33.0497     0.1383    -9.2168 C.3     
  78 C78          -33.2733    -0.8899    -8.1061 C.3     
  79 N79          -32.6380    -2.1565    -8.4781 N.pl3   
  80 C80          -32.7071    -3.2356    -7.6290 C.2     
  81 N81          -33.3377    -3.1317    -6.4930 N.2     
  82 N82          -32.1109    -4.4242    -7.9781 N.pl3   
  83 C83          -37.6084     4.5937    -8.4554 C.2     
  84 O84          -37.8866     3.4323    -8.2440 O.2     
  85 N85          -35.5843     3.7173    -9.4674 N.am    
  86 C86          -36.3188     4.9449    -9.1515 C.3     
  87 C87          -36.6272     5.7019   -10.4449 C.3     
  88 C88          -35.3190     6.1669   -11.0879 C.3     
  89 C89          -35.6274     6.9239   -12.3812 C.3     
  90 N90          -34.3748     7.3692   -12.9969 N.pl3   
  91 C91          -34.4015     8.0750   -14.1764 C.2     
  92 N92          -33.2871     8.4712   -14.7242 N.2     
  93 N93          -35.6036     8.3629   -14.7782 N.pl3   
  94 C94          -40.7283     6.2543    -7.5756 C.2     
  95 O95          -40.4363     7.3309    -8.0516 O.2     
  96 N96          -38.4527     5.5701    -8.0678 N.am    
  97 C97          -39.6520     5.2376    -7.2950 C.3     
  98 C98          -39.3163     5.2489    -5.8023 C.3     
  99 C99          -40.5287     4.7668    -5.0032 C.3     
 100 C100         -40.7809     3.2876    -5.3020 C.3     
 101 C101         -40.2581     4.9462    -3.5081 C.3     
 102 C102         -44.2248     6.7710    -6.6958 C.2     
 103 O103         -44.3417     5.7586    -6.0381 O.2     
 104 N104         -42.0155     5.9672    -7.2975 N.am    
 105 C105         -43.0716     6.9175    -7.6548 C.3     
 106 C106         -43.5533     6.6330    -9.0789 C.3     
 107 C107         -44.5805     7.6896    -9.4905 C.3     
 108 C108         -43.8993     9.0569    -9.5761 C.3     
 109 C109         -45.1672     7.3258   -10.8559 C.3     
 110 C110         -47.3636     8.5084    -5.9940 C.2     
 111 O111         -47.3162     9.1309    -7.0338 O.2     
 112 N112         -45.1262     7.7649    -6.5688 N.am    
 113 C113         -46.1899     7.6654    -5.5663 C.3     
 114 C114         -45.6679     8.1647    -4.2176 C.3     
 115 O115         -45.3649     9.5582    -4.3104 O.3     
 116 C116         -49.3911    10.8137    -5.1925 C.2     
 117 O117         -48.3873    11.1132    -4.5904 O.2     
 118 N118         -48.4659     8.5704    -5.2210 N.am    
 119 C119         -49.6069     9.3899    -5.6367 C.3     
 120 C120         -50.8859     8.8447    -4.9982 C.3     
 121 C121         -52.0923     9.6216    -5.5293 C.3     
 122 C122         -53.3797     8.9969    -4.9880 C.3     
 123 C123         -50.8054     9.0041    -3.4787 C.3     
 124 O124         -50.3142    11.7492    -5.4657 O.3     
 125 C125          -5.2651    -7.4308   -19.3629 C.2     
 126 O126          -4.7707    -6.3234   -19.3669 O.2     
 127 C127          11.9103   -14.1797   -22.6255 C.3     
 128 C128          11.0311   -12.9485   -22.3973 C.3     
 129 C129           9.5804   -13.3888   -22.1915 C.3     
 130 C130           8.7012   -12.1576   -21.9633 C.3     
 131 C131           7.2505   -12.5980   -21.7575 C.3     
 132 C132           6.3713   -11.3667   -21.5293 C.3     
 133 C133           4.9205   -11.8071   -21.3236 C.3     
 134 C134           4.0413   -10.5759   -21.0954 C.3     
 135 C135           2.5906   -11.0162   -20.8896 C.3     
 136 C136           1.7114    -9.7850   -20.6614 C.3     
 137 C137           0.2607   -10.2253   -20.4556 C.3     
 138 C138          -0.6185    -8.9941   -20.2274 C.3     
 139 C139          -2.0693    -9.4344   -20.0217 C.3     
 140 C140          -2.9484    -8.2032   -19.7935 C.3     
 141 C141          -4.3992    -8.6435   -19.5877 C.3     
 142 H142          -6.9846    -8.4626   -19.1543 H       
 143 H143          -6.8696    -5.6492   -18.3800 H       
 144 H144          -8.3369    -6.5908   -20.8839 H       
 145 H145          -8.5507    -4.9935   -20.1282 H       
 146 H146          -6.7538    -6.3627   -22.9136 H       
 147 H147          -4.5876    -5.0133   -23.3530 H       
 148 H148          -3.9842    -3.5469   -21.3467 H       
 149 H149          -9.4593    -4.9450   -18.1145 H       
 150 H150         -11.0854    -7.2570   -17.3812 H       
 151 H151         -11.3519    -6.5231   -15.0277 H       
 152 H152          -9.6573    -6.9391   -15.3793 H       
 153 H153         -10.1556    -5.2324   -15.2948 H       
 154 H154         -13.2431    -6.1785   -16.1796 H       
 155 H155         -13.7620    -3.4954   -17.2090 H       
 156 H156         -15.7750    -4.2789   -18.5014 H       
 157 H157         -13.1509    -5.5187   -19.4404 H       
 158 H158         -14.5113    -4.9968   -20.4628 H       
 159 H159         -13.5493    -3.7893   -19.5769 H       
 160 H160         -16.0420    -6.4619   -17.3562 H       
 161 H161         -15.8883    -6.6784   -19.1163 H       
 162 H162         -14.5010    -7.0162   -18.0535 H       
 163 H163         -16.1767    -2.8675   -16.5520 H       
 164 H164         -17.3410    -4.6462   -14.5499 H       
 165 H165         -16.3011    -1.8646   -13.8496 H       
 166 H166         -17.3708    -2.8349   -12.8091 H       
 167 H167         -13.8711    -2.0735   -12.9954 H       
 168 H168         -12.4604    -4.0378   -12.0696 H       
 169 H169         -13.8462    -6.1810   -11.9083 H       
 170 H170         -19.4138    -3.2385   -13.5577 H       
 171 H171         -20.4449    -1.3756   -15.5562 H       
 172 H172         -21.7983    -4.0598   -15.0267 H       
 173 H173         -22.4648    -2.7385   -16.0157 H       
 174 H174         -20.9897    -3.5857   -16.5398 H       
 175 H175         -22.9904    -0.9403   -14.7859 H       
 176 H176         -23.2648    -1.2762   -11.8981 H       
 177 H177         -22.9178     1.4644   -13.1934 H       
 178 H178         -23.4877     1.1988   -11.5282 H       
 179 H179         -20.6212     0.9865   -13.8118 H       
 180 H180         -18.2889     0.7949   -13.0486 H       
 181 H181         -17.1427     1.1993   -10.3076 H       
 182 H182         -19.6574     0.1579    -9.0503 H       
 183 H183         -21.9867     0.3604    -9.8199 H       
 184 H184         -25.4405     0.1881   -11.2779 H       
 185 H185         -27.2670     0.3336   -13.5518 H       
 186 H186         -27.6499    -1.6673   -11.2805 H       
 187 H187         -28.9025    -1.2369   -12.4696 H       
 188 H188         -27.4207    -1.9987   -14.3061 H       
 189 H189         -26.1682    -2.4292   -13.1169 H       
 190 H190         -27.7273    -4.0405   -12.0579 H       
 191 H191         -28.9798    -3.6101   -13.2471 H       
 192 H192         -26.6551    -4.3929   -14.6469 H       
 193 H193         -29.0309    -7.2573   -13.1813 H       
 194 H194         -26.5734    -6.6019   -15.5325 H       
 195 H195         -27.5772    -7.7952   -14.9071 H       
 196 H196         -29.6635     0.8407   -12.4282 H       
 197 H197         -29.3363     2.2825    -9.9099 H       
 198 H198         -29.9765     3.7070   -12.5309 H       
 199 H199         -30.1581     4.4330   -10.9159 H       
 200 H200         -27.7451     4.0648   -10.4790 H       
 201 H201         -27.5635     3.3388   -12.0941 H       
 202 H202         -28.3057     5.4645   -13.1330 H       
 203 H203         -28.4873     6.1904   -11.5180 H       
 204 H204         -25.8583     5.1852   -11.7514 H       
 205 H205         -26.6847     8.7190   -13.4327 H       
 206 H206         -24.1118     6.7259   -12.2476 H       
 207 H207         -24.4735     8.2068   -12.9539 H       
 208 H208         -31.6887     3.5554    -9.5801 H       
 209 H209         -33.8476     2.0851   -10.8858 H       
 210 H210         -33.2755     1.8282    -7.8999 H       
 211 H211         -34.7826     1.3040    -8.6886 H       
 212 H212         -33.4873    -0.2287   -10.1452 H       
 213 H213         -31.9802     0.2955    -9.3565 H       
 214 H214         -32.8357    -0.5229    -7.1777 H       
 215 H215         -34.3428    -1.0471    -7.9664 H       
 216 H216         -32.1687    -2.2338    -9.3235 H       
 217 H217         -33.3864    -3.8930    -5.8939 H       
 218 H218         -31.6416    -4.5016    -8.8234 H       
 219 H219         -32.1596    -5.1856    -7.3790 H       
 220 H220         -36.0620     2.8794    -9.5710 H       
 221 H221         -35.7129     5.5730    -8.4986 H       
 222 H222         -37.1567     5.0436   -11.1337 H       
 223 H223         -37.2493     6.5680   -10.2195 H       
 224 H224         -34.7895     6.8252   -10.3991 H       
 225 H225         -34.6969     5.3007   -11.3133 H       
 226 H226         -36.1569     6.2657   -13.0701 H       
 227 H227         -36.2495     7.7901   -12.1558 H       
 228 H228         -33.5267     7.1661   -12.5723 H       
 229 H229         -33.3059     8.9692   -15.5564 H       
 230 H230         -36.4330     8.0680   -14.3706 H       
 231 H231         -35.6225     8.8609   -15.6104 H       
 232 H232         -38.2661     6.4932    -8.3005 H       
 233 H233         -40.0049     4.2466    -7.5805 H       
 234 H234         -38.4709     4.5868    -5.6150 H       
 235 H235         -39.0587     6.2627    -5.4956 H       
 236 H236         -41.4054     5.3493    -5.2863 H       
 237 H237         -41.5851     2.9202    -4.6645 H       
 238 H238         -41.0646     3.1714    -6.3480 H       
 239 H239         -39.8728     2.7174    -5.1063 H       
 240 H240         -40.0784     6.0000    -3.2952 H       
 241 H241         -41.1218     4.6027    -2.9388 H       
 242 H242         -39.3814     4.3637    -3.2250 H       
 243 H243         -42.2426     5.1314    -6.8608 H       
 244 H244         -42.6802     7.9333    -7.5998 H       
 245 H245         -42.7051     6.6651    -9.7626 H       
 246 H246         -44.0130     5.6454    -9.1164 H       
 247 H247         -45.3795     7.7275    -8.7501 H       
 248 H248         -44.6063     9.7916    -9.9614 H       
 249 H249         -43.5657     9.3594    -8.5835 H       
 250 H250         -43.0405     8.9938   -10.2444 H       
 251 H251         -45.6525     6.3517   -10.7949 H       
 252 H252         -45.8990     8.0785   -11.1491 H       
 253 H253         -44.3682     7.2879   -11.5963 H       
 254 H254         -45.0707     8.5460    -7.1412 H       
 255 H255         -46.5042     6.6260    -5.4720 H       
 256 H256         -46.4289     8.0085    -3.4531 H       
 257 H257         -44.7660     7.6138    -3.9505 H       
 258 H258         -45.0280     9.9429    -3.4897 H       
 259 H259         -48.5037     8.0725    -4.3894 H       
 260 H260         -49.7006     9.3582    -6.7222 H       
 261 H261         -50.9951     7.7892    -5.2475 H       
 262 H262         -52.0276    10.6599    -5.2041 H       
 263 H263         -52.0992     9.5818    -6.6186 H       
 264 H264         -53.4444     7.9585    -5.3132 H       
 265 H265         -53.3728     9.0366    -3.8987 H       
 266 H266         -54.2392     9.5503    -5.3663 H       
 267 H267         -51.7166     8.6157    -3.0238 H       
 268 H268         -49.9460     8.4506    -3.1003 H       
 269 H269         -50.6962    10.0596    -3.2294 H       
 270 H270         -50.1316    12.6484    -5.1605 H       
 271 H271          11.8494   -14.8357   -21.7571 H       
 272 H272          11.5640   -14.7146   -23.5098 H       
 273 H273          12.9439   -13.8660   -22.7721 H       
 274 H274          11.3774   -12.4137   -21.5129 H       
 275 H275          11.0921   -12.2926   -23.2657 H       
 276 H276           9.2341   -13.9237   -23.0759 H       
 277 H277           9.5195   -14.0448   -21.3231 H       
 278 H278           9.0475   -11.6228   -21.0789 H       
 279 H279           8.7621   -11.5017   -22.8317 H       
 280 H280           6.9042   -13.1328   -22.6419 H       
 281 H281           7.1895   -13.2539   -20.8891 H       
 282 H282           6.7176   -10.8319   -20.6450 H       
 283 H283           6.4322   -10.7108   -22.3977 H       
 284 H284           4.5742   -12.3419   -22.2079 H       
 285 H285           4.8596   -12.4630   -20.4552 H       
 286 H286           4.3876   -10.0410   -20.2110 H       
 287 H287           4.1023    -9.9199   -21.9638 H       
 288 H288           2.2443   -11.5510   -21.7740 H       
 289 H289           2.5297   -11.6721   -20.0212 H       
 290 H290           2.0577    -9.2501   -19.7770 H       
 291 H291           1.7723    -9.1290   -21.5298 H       
 292 H292          -0.0856   -10.7602   -21.3400 H       
 293 H293           0.1998   -10.8812   -19.5872 H       
 294 H294          -0.2722    -8.4592   -19.3431 H       
 295 H295          -0.5576    -8.3381   -21.0958 H       
 296 H296          -2.4155    -9.9693   -20.9060 H       
 297 H297          -2.1302   -10.0904   -19.1533 H       
 298 H298          -2.6022    -7.6683   -18.9091 H       
 299 H299          -2.8875    -7.5472   -20.6619 H       
 300 H300          -4.4601    -9.2995   -18.7193 H       
 301 H301          -4.7455    -9.1784   -20.4721 H       
@<TRIPOS>BOND
   1    1    2 2
   2    1    4 1
   3    1   13 am
   4    3  125 am
   5    3    4 1
   6    3  142 1
   7    4    5 1
   8    4  143 1
   9    5    6 1
  10    5  144 1
  11    5  145 1
  12    6    7 2
  13    6   10 1
  14    7    8 1
  15    7  146 1
  16    8    9 1
  17    8  147 1
  18    9   10 2
  19    9  148 1
  20   11   12 2
  21   11   14 1
  22   11   18 am
  23   13   14 1
  24   13  149 1
  25   14   15 1
  26   14  150 1
  27   15  151 1
  28   15  152 1
  29   15  153 1
  30   16   17 2
  31   16   19 1
  32   16   25 am
  33   18   19 1
  34   18  154 1
  35   19   20 1
  36   19  155 1
  37   20   21 1
  38   20   22 1
  39   20  156 1
  40   21  157 1
  41   21  158 1
  42   21  159 1
  43   22  160 1
  44   22  161 1
  45   22  162 1
  46   23   24 2
  47   23   26 1
  48   23   35 am
  49   25   26 1
  50   25  163 1
  51   26   27 1
  52   26  164 1
  53   27   28 1
  54   27  165 1
  55   27  166 1
  56   28   29 2
  57   28   32 1
  58   29   30 1
  59   29  167 1
  60   30   31 1
  61   30  168 1
  62   31   32 2
  63   31  169 1
  64   33   34 2
  65   33   36 1
  66   33   40 am
  67   35   36 1
  68   35  170 1
  69   36   37 1
  70   36  171 1
  71   37  172 1
  72   37  173 1
  73   37  174 1
  74   38   39 2
  75   38   41 1
  76   38   52 am
  77   40   41 1
  78   40  175 1
  79   41   42 1
  80   41  176 1
  81   42   43 1
  82   42  177 1
  83   42  178 1
  84   43   44 ar
  85   43   49 ar
  86   44   45 ar
  87   44  179 1
  88   45   46 ar
  89   45  180 1
  90   46   47 1
  91   46   48 ar
  92   47  181 1
  93   48   49 ar
  94   48  182 1
  95   49  183 1
  96   50   51 2
  97   50   53 1
  98   50   63 am
  99   52   53 1
 100   52  184 1
 101   53   54 1
 102   53  185 1
 103   54   55 1
 104   54  186 1
 105   54  187 1
 106   55   56 1
 107   55  188 1
 108   55  189 1
 109   56   57 1
 110   56  190 1
 111   56  191 1
 112   57   58 1
 113   57  192 1
 114   58   59 2
 115   58   60 1
 116   59  193 1
 117   60  194 1
 118   60  195 1
 119   61   62 2
 120   61   64 1
 121   61   74 am
 122   63   64 1
 123   63  196 1
 124   64   65 1
 125   64  197 1
 126   65   66 1
 127   65  198 1
 128   65  199 1
 129   66   67 1
 130   66  200 1
 131   66  201 1
 132   67   68 1
 133   67  202 1
 134   67  203 1
 135   68   69 1
 136   68  204 1
 137   69   70 2
 138   69   71 1
 139   70  205 1
 140   71  206 1
 141   71  207 1
 142   72   73 2
 143   72   75 1
 144   72   85 am
 145   74   75 1
 146   74  208 1
 147   75   76 1
 148   75  209 1
 149   76   77 1
 150   76  210 1
 151   76  211 1
 152   77   78 1
 153   77  212 1
 154   77  213 1
 155   78   79 1
 156   78  214 1
 157   78  215 1
 158   79   80 1
 159   79  216 1
 160   80   81 2
 161   80   82 1
 162   81  217 1
 163   82  218 1
 164   82  219 1
 165   83   84 2
 166   83   86 1
 167   83   96 am
 168   85   86 1
 169   85  220 1
 170   86   87 1
 171   86  221 1
 172   87   88 1
 173   87  222 1
 174   87  223 1
 175   88   89 1
 176   88  224 1
 177   88  225 1
 178   89   90 1
 179   89  226 1
 180   89  227 1
 181   90   91 1
 182   90  228 1
 183   91   92 2
 184   91   93 1
 185   92  229 1
 186   93  230 1
 187   93  231 1
 188   94   95 2
 189   94   97 1
 190   94  104 am
 191   96   97 1
 192   96  232 1
 193   97   98 1
 194   97  233 1
 195   98   99 1
 196   98  234 1
 197   98  235 1
 198   99  100 1
 199   99  101 1
 200   99  236 1
 201  100  237 1
 202  100  238 1
 203  100  239 1
 204  101  240 1
 205  101  241 1
 206  101  242 1
 207  102  103 2
 208  102  105 1
 209  102  112 am
 210  104  105 1
 211  104  243 1
 212  105  106 1
 213  105  244 1
 214  106  107 1
 215  106  245 1
 216  106  246 1
 217  107  108 1
 218  107  109 1
 219  107  247 1
 220  108  248 1
 221  108  249 1
 222  108  250 1
 223  109  251 1
 224  109  252 1
 225  109  253 1
 226  110  111 2
 227  110  113 1
 228  110  118 am
 229  112  113 1
 230  112  254 1
 231  113  114 1
 232  113  255 1
 233  114  115 1
 234  114  256 1
 235  114  257 1
 236  115  258 1
 237  116  117 2
 238  116  119 1
 239  116  124 1
 240  118  119 1
 241  118  259 1
 242  119  120 1
 243  119  260 1
 244  120  121 1
 245  120  123 1
 246  120  261 1
 247  121  122 1
 248  121  262 1
 249  121  263 1
 250  122  264 1
 251  122  265 1
 252  122  266 1
 253  123  267 1
 254  123  268 1
 255  123  269 1
 256  124  270 1
 257  125  126 2
 258  125  141 1
 259  127  128 1
 260  127  271 1
 261  127  272 1
 262  127  273 1
 263  128  129 1
 264  128  274 1
 265  128  275 1
 266  129  130 1
 267  129  276 1
 268  129  277 1
 269  130  131 1
 270  130  278 1
 271  130  279 1
 272  131  132 1
 273  131  280 1
 274  131  281 1
 275  132  133 1
 276  132  282 1
 277  132  283 1
 278  133  134 1
 279  133  284 1
 280  133  285 1
 281  134  135 1
 282  134  286 1
 283  134  287 1
 284  135  136 1
 285  135  288 1
 286  135  289 1
 287  136  137 1
 288  136  290 1
 289  136  291 1
 290  137  138 1
 291  137  292 1
 292  137  293 1
 293  138  139 1
 294  138  294 1
 295  138  295 1
 296  139  140 1
 297  139  296 1
 298  139  297 1
 299  140  141 1
 300  140  298 1
 301  140  299 1
 302  141  300 1
 303  141  301 1

#	End of record

