#	Name: ASD05430008
#	Creating user name:	WinNT
#	Creation time:	15. 06. 2019 20:59

#	Modifying user name:	WinNT
#	Modification time:	15. 06. 2019 20:59

#	Program:	/corina/corina34_cracker 3.40 0067  02.08.2006

@<TRIPOS>MOLECULE
ASD05430008
  62   67    0    0    0
SMALL
NO_CHARGES


@<TRIPOS>ATOM
   1 C1            -1.3138    -0.8445     0.2513 C.ar    
   2 C2            -0.2991    -0.3307     1.0581 C.ar    
   3 C3            -0.4410     0.9196     1.6464 C.ar    
   4 C4            -1.5849     1.6581     1.4356 C.ar    
   5 C5            -2.6066     1.1494     0.6272 C.ar    
   6 C6            -2.4614    -0.1066     0.0304 C.ar    
   7 C7            -5.1860    -0.1753     0.5300 C.3     
   8 C8            -5.0166     1.3148     0.2751 C.2     
   9 C9            -3.8298     1.9367     0.4011 C.2     
  10 C10           -6.4872    -0.3852     1.3039 C.3     
  11 C11           -7.7326     0.1059     0.5666 C.3     
  12 N12           -7.5088     1.4754     0.1092 N.pl3   
  13 C13           -6.2486     2.0325    -0.1219 C.2     
  14 C14           -8.4830     2.5296    -0.1786 C.3     
  15 O15           -7.7259     3.4713    -0.9675 O.3     
  16 N16           -6.3595     3.1750    -0.7131 N.2     
  17 N17            0.8663    -1.0777     1.2763 N.pl3   
  18 C18            2.1562    -0.6351     1.1362 C.2     
  19 C19            2.9597    -1.6711     1.4437 C.2     
  20 N20            2.1871    -2.7198     1.7634 N.2     
  21 C21            0.9313    -2.3754     1.6722 C.2     
  22 C22           -9.6414     1.9815    -0.9715 C.ar    
  23 C23          -10.0695     2.6361    -2.1114 C.ar    
  24 C24          -10.2715     0.8212    -0.5616 C.ar    
  25 C25          -11.3334     0.3172    -1.2884 C.ar    
  26 C26          -11.7664     0.9748    -2.4273 C.ar    
  27 C27          -11.1314     2.1342    -2.8395 C.ar    
  28 F28          -12.8043     0.4830    -3.1386 F       
  29 C29           -8.9728     3.1806     1.1164 C.3     
  30 O30           -1.1719    -2.0687    -0.3226 O.3     
  31 C31            4.4666    -1.6552     1.4302 C.3     
  32 C32           -2.2507    -2.5327    -1.1368 C.3     
  33 C33           -6.6351    -1.8010     1.8800 C.3     
  34 C34           -7.1264    -1.1018     3.1625 C.3     
  35 O35           -6.4189     0.0549     2.6694 O.3     
  36 H36            0.3472     1.3136     2.2709 H       
  37 H37           -1.6928     2.6296     1.8948 H       
  38 H38           -3.2478    -0.5030    -0.5949 H       
  39 H39           -5.2337    -0.7075    -0.4200 H       
  40 H40           -4.3456    -0.5454     1.1172 H       
  41 H41           -3.7747     3.0133     0.3365 H       
  42 H42           -7.9257    -0.5380    -0.2914 H       
  43 H43           -8.5885     0.0823     1.2412 H       
  44 H44            2.4682     0.3544     0.8362 H       
  45 H45            0.0856    -3.0168     1.8717 H       
  46 H46           -9.5741     3.5404    -2.4328 H       
  47 H47           -9.9336     0.3084     0.3268 H       
  48 H48          -11.8250    -0.5896    -0.9684 H       
  49 H49          -11.4686     2.6482    -3.7275 H       
  50 H50           -8.1264     3.6178     1.6460 H       
  51 H51           -9.6959     3.9611     0.8798 H       
  52 H52           -9.4451     2.4265     1.7461 H       
  53 H53            4.8356    -1.3549     2.4108 H       
  54 H54            4.8383    -2.6517     1.1916 H       
  55 H55            4.8157    -0.9476     0.6782 H       
  56 H56           -2.0092    -3.5193    -1.5323 H       
  57 H57           -3.1585    -2.5940    -0.5366 H       
  58 H58           -2.4073    -1.8386    -1.9625 H       
  59 H59           -7.3989    -2.4006     1.3848 H       
  60 H60           -5.6889    -2.3286     2.0007 H       
  61 H61           -8.2076    -0.9713     3.2069 H       
  62 H62           -6.7075    -1.5171     4.0791 H       
@<TRIPOS>BOND
   1    1    2 ar
   2    1   30 1
   3    1    6 ar
   4    2    3 ar
   5    2   17 1
   6    3    4 ar
   7    3   36 1
   8    4    5 ar
   9    4   37 1
  10    5    6 ar
  11    5    9 1
  12    6   38 1
  13    7    8 1
  14    7   10 1
  15    7   39 1
  16    7   40 1
  17    8    9 2
  18    8   13 1
  19    9   41 1
  20   10   11 1
  21   10   33 1
  22   10   35 1
  23   11   12 1
  24   11   42 1
  25   11   43 1
  26   12   13 1
  27   12   14 1
  28   13   16 2
  29   14   15 1
  30   14   22 1
  31   14   29 1
  32   15   16 1
  33   17   18 1
  34   17   21 1
  35   18   19 2
  36   18   44 1
  37   19   20 1
  38   19   31 1
  39   20   21 2
  40   21   45 1
  41   22   23 ar
  42   22   24 ar
  43   23   27 ar
  44   23   46 1
  45   24   25 ar
  46   24   47 1
  47   25   26 ar
  48   25   48 1
  49   26   27 ar
  50   26   28 1
  51   27   49 1
  52   29   50 1
  53   29   51 1
  54   29   52 1
  55   30   32 1
  56   31   53 1
  57   31   54 1
  58   31   55 1
  59   32   56 1
  60   32   57 1
  61   32   58 1
  62   33   34 1
  63   33   59 1
  64   33   60 1
  65   34   35 1
  66   34   61 1
  67   34   62 1

#	End of record

