#	Name: ASD05430666
#	Creating user name:	WinNT
#	Creation time:	15. 06. 2019 21:00

#	Modifying user name:	WinNT
#	Modification time:	15. 06. 2019 21:00

#	Program:	/corina/corina34_cracker 3.40 0067  02.08.2006

@<TRIPOS>MOLECULE
ASD05430666
  26   26    0    0    0
SMALL
NO_CHARGES


@<TRIPOS>ATOM
   1 C1            -0.0167     1.3781     0.0096 C.ar    
   2 C2             0.0021    -0.0041     0.0020 C.ar    
   3 C3            -1.1855    -0.7115     0.0095 C.ar    
   4 C4            -2.4105     1.3455     0.0438 C.ar    
   5 C5            -1.2230     2.0529     0.0305 C.ar    
   6 C6             1.2780     2.1493     0.0014 C.3     
   7 C7            -2.3919    -0.0367     0.0251 C.ar    
   8 C8             1.3352     3.0367    -1.2437 C.3     
   9 C9             1.3591     3.0232     1.2546 C.3     
  10 S10           -3.9469    -0.9629     0.0343 Du      
  11 F11           -4.5186     0.0083     1.1841 F       
  12 F12           -3.3536    -1.9478     1.1612 F       
  13 F13           -3.3753    -1.9341    -1.1155 F       
  14 F14           -5.3301    -1.7868     0.0425 F       
  15 F15           -4.5403     0.0220    -1.0926 F       
  16 H16            0.9446    -0.5313    -0.0101 H       
  17 H17           -1.1709    -1.7913     0.0029 H       
  18 H18           -3.3530     1.8727     0.0601 H       
  19 H19           -1.2375     3.1327     0.0451 H       
  20 H20            2.1160     1.4524    -0.0103 H       
  21 H21            0.4972     3.7336    -1.2320 H       
  22 H22            2.2717     3.5944    -1.2496 H       
  23 H23            1.2775     2.4141    -2.1365 H       
  24 H24            1.3183     2.3911     2.1417 H       
  25 H25            2.2955     3.5810     1.2487 H       
  26 H26            0.5211     3.7202     1.2664 H       
@<TRIPOS>BOND
   1    1    2 ar
   2    1    6 1
   3    1    5 ar
   4    2    3 ar
   5    2   16 1
   6    3    7 ar
   7    3   17 1
   8    4    5 ar
   9    4    7 ar
  10    4   18 1
  11    5   19 1
  12    6    8 1
  13    6    9 1
  14    6   20 1
  15    7   10 1
  16    8   21 1
  17    8   22 1
  18    8   23 1
  19    9   24 1
  20    9   25 1
  21    9   26 1
  22   10   11 1
  23   10   12 1
  24   10   13 1
  25   10   14 1
  26   10   15 1

#	End of record

