#	Name: ASD01903339
#	Creating user name:	WinNT
#	Creation time:	15. 06. 2019 19:54

#	Modifying user name:	WinNT
#	Modification time:	15. 06. 2019 19:54

#	Program:	/corina/corina34_cracker 3.40 0067  02.08.2006

@<TRIPOS>MOLECULE
ASD01903339
  41   44    0    0    0
SMALL
NO_CHARGES


@<TRIPOS>ATOM
   1 C1            -0.0228     1.3668     0.1887 C.ar    
   2 C2             0.0106    -0.0070     0.3040 C.ar    
   3 C3             1.2071    -0.6992     0.1545 C.ar    
   4 C4             2.3663    -0.0071    -0.1109 C.ar    
   5 C5             2.3299     1.3779    -0.2270 C.ar    
   6 C6             1.1419     2.0623    -0.0779 C.ar    
   7 S7             1.5175    -2.4327     0.2533 S.o2    
   8 N8             3.1425    -2.6378    -0.0147 N.am    
   9 S9             3.7374    -1.1071    -0.2549 S.o2    
  10 O10            4.1619    -1.0474    -1.6098 O.2     
  11 O11            4.5941    -0.8302     0.8444 O.2     
  12 O12            1.2807    -2.8087     1.6031 O.2     
  13 O13            0.8485    -3.0259    -0.8511 O.2     
  14 C14            3.8564    -3.8406    -0.0336 C.ar    
  15 C15            5.2242    -3.8327    -0.2752 C.ar    
  16 C16            5.9287    -5.0198    -0.2933 C.ar    
  17 C17            5.2699    -6.2219    -0.0704 C.ar    
  18 C18            3.9022    -6.2299     0.1707 C.ar    
  19 C19            3.1986    -5.0424     0.1950 C.ar    
  20 N20            5.9846    -7.4261    -0.0893 N.am    
  21 C21            5.4119    -8.5420    -0.5824 C.2     
  22 C22            6.2008    -9.7902    -0.6980 C.ar    
  23 O23            4.2481    -8.5241    -0.9323 O.2     
  24 C24            5.6032   -10.9394    -1.2082 C.ar    
  25 C25            6.3533   -12.1013    -1.3116 C.ar    
  26 C26            7.6754   -12.0736    -0.9009 C.ar    
  27 C27            8.2082   -10.8918    -0.4011 C.ar    
  28 N28            7.4738    -9.8019    -0.3191 N.ar    
  29 F29            9.4974   -10.8592     0.0014 F       
  30 H30           -0.9567     1.8973     0.3020 H       
  31 H31           -0.8997    -0.5495     0.5123 H       
  32 H32            3.2392     1.9221    -0.4353 H       
  33 H33            1.1214     3.1382    -0.1699 H       
  34 H34            5.7364    -2.8980    -0.4493 H       
  35 H35            6.9922    -5.0137    -0.4812 H       
  36 H36            3.3898    -7.1648     0.3434 H       
  37 H37            2.1351    -5.0486     0.3829 H       
  38 H38            6.8919    -7.4570     0.2526 H       
  39 H39            4.5690   -10.9263    -1.5192 H       
  40 H40            5.9159   -13.0078    -1.7033 H       
  41 H41            8.2862   -12.9617    -0.9681 H       
@<TRIPOS>BOND
   1    1    2 ar
   2    1    6 ar
   3    1   30 1
   4    2    3 ar
   5    2   31 1
   6    3    4 ar
   7    3    7 1
   8    4    5 ar
   9    4    9 1
  10    5    6 ar
  11    5   32 1
  12    6   33 1
  13    7    8 am
  14    7   12 2
  15    7   13 2
  16    8    9 am
  17    8   14 1
  18    9   10 2
  19    9   11 2
  20   14   15 ar
  21   14   19 ar
  22   15   16 ar
  23   15   34 1
  24   16   17 ar
  25   16   35 1
  26   17   18 ar
  27   17   20 1
  28   18   19 ar
  29   18   36 1
  30   19   37 1
  31   20   21 am
  32   20   38 1
  33   21   22 1
  34   21   23 2
  35   22   24 ar
  36   22   28 ar
  37   24   25 ar
  38   24   39 1
  39   25   26 ar
  40   25   40 1
  41   26   27 ar
  42   26   41 1
  43   27   28 ar
  44   27   29 1

#	End of record

