#	Name: ASD00100160
#	Creating user name:	WinNT
#	Creation time:	15. 06. 2019 18:30

#	Modifying user name:	WinNT
#	Modification time:	15. 06. 2019 18:30

#	Program:	/corina/corina34_cracker 3.40 0067  02.08.2006

@<TRIPOS>MOLECULE
ASD00100160
  46   48    0    0    0
SMALL
NO_CHARGES


@<TRIPOS>ATOM
   1 C1             0.8523    -1.2453     1.3656 C.3     
   2 S2            -0.1071    -0.4871     0.0258 S.o2    
   3 O3            -1.2818    -1.2428    -0.2358 O.2     
   4 O4            -0.1648     0.9232     0.1900 O.2     
   5 N5             0.8266    -0.7032    -1.3246 N.am    
   6 C6             2.0980    -0.1285    -1.3940 C.ar    
   7 C7             3.1773    -0.8825    -1.8306 C.ar    
   8 C8             4.4426    -0.3052    -1.8980 C.ar    
   9 C9             4.6175     1.0273    -1.5262 C.ar    
  10 C10            3.5384     1.7708    -1.0928 C.ar    
  11 C11            2.2808     1.2005    -1.0310 C.ar    
  12 C12            6.7771    -2.7792    -3.0987 C.2     
  13 N13            5.5696    -2.4050    -2.7527 N.2     
  14 C14            5.6014    -1.1057    -2.3635 C.2     
  15 C15            6.8799    -0.6681    -2.4762 C.2     
  16 N16            7.6237    -1.7254    -2.9409 N.pl3   
  17 C17            9.0628    -1.7199    -3.2149 C.3     
  18 C18            9.2957    -1.4091    -4.6710 C.ar    
  19 C19            9.2804    -0.0934    -5.1112 C.ar    
  20 C20            9.4951     0.1894    -6.4521 C.ar    
  21 C21            9.7236    -0.8392    -7.3459 C.ar    
  22 C22            9.7379    -2.1493    -6.9048 C.ar    
  23 C23            9.5303    -2.4334    -5.5674 C.ar    
  24 O24            9.0550     0.9166    -4.2303 O.3     
  25 C25            9.0534     2.2461    -4.7541 C.3     
  26 N26            7.1336    -4.0401    -3.5454 N.pl3   
  27 H27            1.0583    -2.2872     1.1204 H       
  28 H28            1.7928    -0.7081     1.4881 H       
  29 H29            0.2824    -1.1963     2.2934 H       
  30 H30            0.4908    -1.2288    -2.0675 H       
  31 H31            3.0368    -1.9143    -2.1172 H       
  32 H32            5.5978     1.4777    -1.5771 H       
  33 H33            3.6762     2.8026    -0.8050 H       
  34 H34            1.4389     1.7878    -0.6954 H       
  35 H35            7.2438     0.3221    -2.2446 H       
  36 H36            9.5470    -0.9616    -2.5996 H       
  37 H37            9.4810    -2.6989    -2.9809 H       
  38 H38            9.4833     1.2127    -6.7973 H       
  39 H39            9.8908    -0.6196    -8.3900 H       
  40 H40            9.9160    -2.9520    -7.6051 H       
  41 H41            9.5467    -3.4574    -5.2245 H       
  42 H42           10.0228     2.4606    -5.2038 H       
  43 H43            8.2738     2.3377    -5.5104 H       
  44 H44            8.8622     2.9541    -3.9477 H       
  45 H45            6.4507    -4.7121    -3.6965 H       
  46 H46            8.0664    -4.2515    -3.7072 H       
@<TRIPOS>BOND
   1    1    2 1
   2    1   27 1
   3    1   28 1
   4    1   29 1
   5    2    3 2
   6    2    4 2
   7    2    5 am
   8    5    6 1
   9    5   30 1
  10    6    7 ar
  11    6   11 ar
  12    7    8 ar
  13    7   31 1
  14    8    9 ar
  15    8   14 1
  16    9   10 ar
  17    9   32 1
  18   10   11 ar
  19   10   33 1
  20   11   34 1
  21   12   13 2
  22   12   16 1
  23   12   26 1
  24   13   14 1
  25   14   15 2
  26   15   16 1
  27   15   35 1
  28   16   17 1
  29   17   18 1
  30   17   36 1
  31   17   37 1
  32   18   19 ar
  33   18   23 ar
  34   19   20 ar
  35   19   24 1
  36   20   21 ar
  37   20   38 1
  38   21   22 ar
  39   21   39 1
  40   22   23 ar
  41   22   40 1
  42   23   41 1
  43   24   25 1
  44   25   42 1
  45   25   43 1
  46   25   44 1
  47   26   45 1
  48   26   46 1

#	End of record

