#	Name: ASD01940325
#	Creating user name:	WinNT
#	Creation time:	15. 06. 2019 20:12

#	Modifying user name:	WinNT
#	Modification time:	15. 06. 2019 20:12

#	Program:	/corina/corina34_cracker 3.40 0067  02.08.2006

@<TRIPOS>MOLECULE
ASD01940325
  32   33    0    0    0
SMALL
NO_CHARGES


@<TRIPOS>ATOM
   1 N1            -0.0169     1.3943     0.0097 N.pl3   
   2 C2             0.0612     0.0003     0.0910 C.ar    
   3 C3            -1.0419    -0.7355     0.5044 C.ar    
   4 C4            -0.9630    -2.1123     0.5842 C.ar    
   5 C5             0.2128    -2.7605     0.2537 C.ar    
   6 C6             1.3159    -2.0322    -0.1592 C.ar    
   7 C7             1.2413    -0.6522    -0.2472 C.ar    
   8 N8            -2.3018    -0.0445     0.8599 N.pl3   
   9 O9            -3.1443     0.1636     0.0053 O.2     
  10 O10           -2.4958     0.3161     2.0070 O.2     
  11 C11            0.9222     2.1045    -0.7455 C.ar    
  12 C12            0.9063     2.0220    -2.1343 C.ar    
  13 C13            1.8362     2.7254    -2.8769 C.ar    
  14 C14            2.7815     3.5100    -2.2398 C.ar    
  15 C15            2.7992     3.5929    -0.8595 C.ar    
  16 C16            1.8685     2.8977    -0.1113 C.ar    
  17 I17            4.1894     4.5739    -3.3689 I       
  18 F18           -0.0161     1.2553    -2.7561 F       
  19 F19            2.3150     0.0591    -0.6551 F       
  20 F20            2.4633    -2.6685    -0.4815 F       
  21 C21           -2.1607    -2.9094     1.0329 C.3     
  22 C22           -3.0732    -3.1772    -0.1656 C.3     
  23 H23           -0.7246     1.8683     0.4737 H       
  24 H24            0.2710    -3.8370     0.3179 H       
  25 H25            1.8251     2.6624    -3.9550 H       
  26 H26            3.5387     4.2059    -0.3657 H       
  27 H27            1.8806     2.9672     0.9664 H       
  28 H28           -1.8284    -3.8576     1.4556 H       
  29 H29           -2.7090    -2.3470     1.7886 H       
  30 H30           -3.4055    -2.2290    -0.5883 H       
  31 H31           -2.5248    -3.7396    -0.9213 H       
  32 H32           -3.9395    -3.7537     0.1589 H       
@<TRIPOS>BOND
   1    1    2 1
   2    1   11 1
   3    1   23 1
   4    2    3 ar
   5    2    7 ar
   6    3    4 ar
   7    3    8 1
   8    4    5 ar
   9    4   21 1
  10    5    6 ar
  11    5   24 1
  12    6    7 ar
  13    6   20 1
  14    7   19 1
  15    8    9 2
  16    8   10 2
  17   11   12 ar
  18   11   16 ar
  19   12   13 ar
  20   12   18 1
  21   13   14 ar
  22   13   25 1
  23   14   15 ar
  24   14   17 1
  25   15   16 ar
  26   15   26 1
  27   16   27 1
  28   21   22 1
  29   21   28 1
  30   21   29 1
  31   22   30 1
  32   22   31 1
  33   22   32 1

#	End of record

