#	Name: ASD00310504
#	Creating user name:	WinNT
#	Creation time:	15. 06. 2019 18:34

#	Modifying user name:	WinNT
#	Modification time:	15. 06. 2019 18:34

#	Program:	/corina/corina34_cracker 3.40 0067  02.08.2006

@<TRIPOS>MOLECULE
ASD00310504
  42   45    0    0    0
SMALL
NO_CHARGES


@<TRIPOS>ATOM
   1 N1            -0.0163     1.3499     0.0095 N.pl3   
   2 C2             0.0021    -0.0041     0.0020 C.2     
   3 C3             1.2922    -0.4483    -0.0127 C.2     
   4 C4             2.1476     0.7538    -0.0144 C.ar    
   5 C5             3.5232     0.9581    -0.0264 C.ar    
   6 C6             4.0242     2.2536    -0.0243 C.ar    
   7 C7             3.1469     3.3435    -0.0100 C.ar    
   8 C8             1.7853     3.1435     0.0019 C.ar    
   9 C9             1.2697     1.8501    -0.0001 C.ar    
  10 C10            1.7402    -1.8454    -0.0245 C.2     
  11 O11            2.9286    -2.1027    -0.0367 O.2     
  12 O12            0.8342    -2.8441    -0.0217 O.3     
  13 C13            5.4901     2.4818    -0.0365 C.ar    
  14 C14            6.0523     3.3602    -0.9612 C.ar    
  15 C15            7.4154     3.5702    -0.9702 C.ar    
  16 C16            8.2273     2.9075    -0.0598 C.ar    
  17 C17            7.6703     2.0317     0.8620 C.ar    
  18 C18            6.3071     1.8226     0.8803 C.ar    
  19 O19            9.5700     3.1161    -0.0714 O.3     
  20 C20           10.3459     2.4018     0.8928 C.3     
  21 C21           12.3442     3.8207     1.4263 C.ar    
  22 C22           11.8012     2.7574     0.7297 C.ar    
  23 C23           12.6124     2.0220    -0.1205 C.ar    
  24 C24           13.9455     2.3852    -0.2388 C.ar    
  25 C25           14.4176     3.4604     0.4895 C.ar    
  26 N26           13.6166     4.1378     1.2888 N.ar    
  27 Cl27           3.7804     4.9597    -0.0068 Cl      
  28 H28           -0.8206     1.8921     0.0164 H       
  29 H29           -0.8729    -0.6372     0.0073 H       
  30 H30            4.1977     0.1147    -0.0370 H       
  31 H31            1.1158     3.9909     0.0132 H       
  32 H32            1.1772    -3.7482    -0.0298 H       
  33 H33            5.4213     3.8755    -1.6702 H       
  34 H34            7.8516     4.2507    -1.6865 H       
  35 H35            8.3045     1.5170     1.5686 H       
  36 H36            5.8738     1.1448     1.6008 H       
  37 H37           10.0162     2.6713     1.8962 H       
  38 H38           10.2147     1.3301     0.7429 H       
  39 H39           11.7178     4.4014     2.0873 H       
  40 H40           12.2157     1.1859    -0.6772 H       
  41 H41           14.6064     1.8345    -0.8917 H       
  42 H42           15.4546     3.7497     0.4029 H       
@<TRIPOS>BOND
   1    1    2 1
   2    1    9 1
   3    1   28 1
   4    2    3 2
   5    2   29 1
   6    3    4 1
   7    3   10 1
   8    4    5 ar
   9    4    9 ar
  10    5    6 ar
  11    5   30 1
  12    6    7 ar
  13    6   13 1
  14    7    8 ar
  15    7   27 1
  16    8    9 ar
  17    8   31 1
  18   10   11 2
  19   10   12 1
  20   12   32 1
  21   13   14 ar
  22   13   18 ar
  23   14   15 ar
  24   14   33 1
  25   15   16 ar
  26   15   34 1
  27   16   17 ar
  28   16   19 1
  29   17   18 ar
  30   17   35 1
  31   18   36 1
  32   19   20 1
  33   20   22 1
  34   20   37 1
  35   20   38 1
  36   21   22 ar
  37   21   26 ar
  38   21   39 1
  39   22   23 ar
  40   23   24 ar
  41   23   40 1
  42   24   25 ar
  43   24   41 1
  44   25   26 ar
  45   25   42 1

#	End of record

