#	Name: ASD01911861
#	Creating user name:	WinNT
#	Creation time:	15. 06. 2019 19:58

#	Modifying user name:	WinNT
#	Modification time:	15. 06. 2019 19:58

#	Program:	/corina/corina34_cracker 3.40 0067  02.08.2006

@<TRIPOS>MOLECULE
ASD01911861
  38   40    0    0    0
SMALL
NO_CHARGES


@<TRIPOS>ATOM
   1 C1            -1.0487    -0.4840    -2.0516 C.ar    
   2 C2            -1.0617     0.0600    -0.7713 C.ar    
   3 C3            -1.0259     1.4448    -0.6430 C.ar    
   4 N4            -0.9812     2.1897    -1.7353 N.ar    
   5 C5            -0.9704     1.6364    -2.9314 C.ar    
   6 N6            -1.0032     0.3290    -3.0941 N.ar    
   7 O7            -1.1085    -0.7407     0.3259 O.3     
   8 C8            -1.1452    -2.0853     0.1333 C.ar    
   9 C9             0.0139    -2.7702    -0.2049 C.ar    
  10 C10           -0.0221    -4.1386    -0.4012 C.ar    
  11 C11           -1.2124    -4.8283    -0.2608 C.ar    
  12 C12           -2.3747    -4.1473     0.0775 C.ar    
  13 C13           -2.3389    -2.7744     0.2800 C.ar    
  14 N14           -3.5786    -4.8446     0.2186 N.am    
  15 C15           -3.5735    -6.1124     0.6759 C.2     
  16 C16           -4.8326    -6.8851     0.7260 C.ar    
  17 O17           -2.5334    -6.6204     1.0471 O.2     
  18 C18           -6.0285    -6.3047     0.3005 C.ar    
  19 C19           -7.2003    -7.0315     0.3500 C.ar    
  20 C20           -7.1916    -8.3325     0.8204 C.ar    
  21 C21           -6.0093    -8.9138     1.2437 C.ar    
  22 C22           -4.8298    -8.2005     1.1937 C.ar    
  23 C23           -6.0095   -10.3314     1.7551 C.3     
  24 Cl24           1.4291    -4.9917    -0.8252 Cl      
  25 H25           -1.0710    -1.5546    -2.1923 H       
  26 H26           -1.0349     1.9049     0.3340 H       
  27 H27           -0.9336     2.2727    -3.8032 H       
  28 H28            0.9447    -2.2338    -0.3152 H       
  29 H29           -1.2383    -5.8970    -0.4145 H       
  30 H30           -3.2415    -2.2428     0.5431 H       
  31 H31           -4.4174    -4.4158    -0.0126 H       
  32 H32           -6.0368    -5.2890    -0.0662 H       
  33 H33           -8.1264    -6.5837     0.0211 H       
  34 H34           -8.1117    -8.8968     0.8577 H       
  35 H35           -3.9078    -8.6553     1.5245 H       
  36 H36           -5.8373   -11.0170     0.9253 H       
  37 H37           -5.2183   -10.4508     2.4952 H       
  38 H38           -6.9730   -10.5518     2.2145 H       
@<TRIPOS>BOND
   1    1    2 ar
   2    1    6 ar
   3    1   25 1
   4    2    3 ar
   5    2    7 1
   6    3    4 ar
   7    3   26 1
   8    4    5 ar
   9    5    6 ar
  10    5   27 1
  11    7    8 1
  12    8    9 ar
  13    8   13 ar
  14    9   10 ar
  15    9   28 1
  16   10   11 ar
  17   10   24 1
  18   11   12 ar
  19   11   29 1
  20   12   13 ar
  21   12   14 1
  22   13   30 1
  23   14   15 am
  24   14   31 1
  25   15   16 1
  26   15   17 2
  27   16   18 ar
  28   16   22 ar
  29   18   19 ar
  30   18   32 1
  31   19   20 ar
  32   19   33 1
  33   20   21 ar
  34   20   34 1
  35   21   22 ar
  36   21   23 1
  37   22   35 1
  38   23   36 1
  39   23   37 1
  40   23   38 1

#	End of record

