#	Name: ASD09116162
#	Creating user name:	WinNT
#	Creation time:	15. 06. 2019 21:20

#	Modifying user name:	WinNT
#	Modification time:	15. 06. 2019 21:20

#	Program:	/corina/corina34_cracker 3.40 0067  02.08.2006

@<TRIPOS>MOLECULE
ASD09116162
  82   89    0    0    0
SMALL
NO_CHARGES


@<TRIPOS>ATOM
   1 N1            -0.0613     1.6024    -0.5382 N.2     
   2 C2            -0.0897     0.2761    -1.1799 C.3     
   3 C3             1.1888     1.9779    -0.5232 C.2     
   4 N4             2.0152     1.0673    -1.0772 N.2     
   5 C5             1.3684     0.0139    -1.5031 C.2     
   6 N6             1.6191     3.1791     0.0032 N.pl3   
   7 C7             2.9896     3.4575     0.0844 C.ar    
   8 C8             3.4394     4.7664    -0.0225 C.ar    
   9 C9             3.8977     2.4244     0.2777 C.ar    
  10 C10            5.2497     2.6994     0.3582 C.ar    
  11 C11            5.6998     4.0107     0.2456 C.ar    
  12 C12            4.7909     5.0421     0.0574 C.ar    
  13 N13            1.8929    -1.0857    -2.1081 N.pl3   
  14 C14           -0.6183    -0.7645    -0.2265 C.ar    
  15 C15           -1.1144    -0.3709     0.9979 C.ar    
  16 N16           -0.6029    -2.0375    -0.5815 N.ar    
  17 C17           -1.0520    -2.9845     0.2128 C.ar    
  18 C18           -1.5616    -2.6757     1.4630 C.ar    
  19 C19           -1.6039    -1.3480     1.8786 C.ar    
  20 C20           -1.1468    -4.5039     0.0469 C.3     
  21 C21           -2.6777    -4.7814    -0.0865 C.3     
  22 C22           -3.2455    -4.4343     1.3107 C.3     
  23 C23           -1.9919    -3.9834     2.1261 C.3     
  24 C24           -0.9073    -4.9573     1.5340 C.3     
  25 C25           -2.1403    -0.9801     3.2047 C.2     
  26 C26           -1.5227    -0.1839     4.1011 C.2     
  27 C27           -2.2217     0.0158     5.2725 C.2     
  28 C28           -3.4020    -0.6084     5.3413 C.2     
  29 S29           -3.6870    -1.5064     3.8563 S.3     
  30 F30            6.1336     1.6952     0.5465 F       
  31 N31            7.0702     4.2905     0.3271 N.3     
  32 C32            7.5512     4.9285    -0.9050 C.3     
  33 C33            9.0720     5.0864    -0.8392 C.3     
  34 C34            9.4393     5.9409     0.3772 C.3     
  35 C35            8.8851     5.2793     1.6420 C.3     
  36 C36            7.3697     5.1158     1.5042 C.3     
  37 N37           10.9009     6.0474     0.4790 N.3     
  38 C38           11.2881     6.9579     1.5656 C.3     
  39 C39           12.8134     6.9797     1.6900 C.3     
  40 N40           13.4004     7.4087     0.4129 N.3     
  41 C41           13.0131     6.4982    -0.6737 C.3     
  42 C42           11.4879     6.4764    -0.7981 C.3     
  43 C43           14.8620     7.5152     0.5147 C.3     
  44 H44           -0.6892     0.3020    -2.0899 H       
  45 H45            0.9725     3.8305     0.3170 H       
  46 H46            2.7325     5.5697    -0.1686 H       
  47 H47            3.5474     1.4066     0.3653 H       
  48 H48            5.1403     6.0602    -0.0303 H       
  49 H49            2.8484    -1.1437    -2.2646 H       
  50 H50            1.3114    -1.8117    -2.3831 H       
  51 H51           -1.1260     0.6728     1.2752 H       
  52 H52           -0.5088    -4.9458    -0.7184 H       
  53 H53           -3.1177    -4.1378    -0.8483 H       
  54 H54           -2.8567    -5.8306    -0.3217 H       
  55 H55           -3.9674    -3.6209     1.2386 H       
  56 H56           -3.7022    -5.3127     1.7667 H       
  57 H57           -2.1046    -3.9604     3.2100 H       
  58 H58           -1.1595    -6.0056     1.6938 H       
  59 H59            0.0977    -4.7206     1.8832 H       
  60 H60           -0.5565     0.2617     3.9161 H       
  61 H61           -1.8435     0.6309     6.0756 H       
  62 H62           -4.0800    -0.5647     6.1808 H       
  63 H63            7.2872     4.3086    -1.7619 H       
  64 H64            7.0884     5.9097    -1.0105 H       
  65 H65            9.5362     4.1044    -0.7476 H       
  66 H66            9.4269     5.5741    -1.7471 H       
  67 H67            9.0074     6.9357     0.2673 H       
  68 H68            9.3463     4.3004     1.7726 H       
  69 H69            9.1065     5.9049     2.5067 H       
  70 H70            6.9078     6.0962     1.3874 H       
  71 H71            6.9739     4.6320     2.3971 H       
  72 H72           10.9269     7.9623     1.3445 H       
  73 H73           10.8517     6.6121     2.5026 H       
  74 H74           13.1042     7.6764     2.4762 H       
  75 H75           13.1724     5.9808     1.9379 H       
  76 H76           13.4495     6.8440    -1.6108 H       
  77 H77           13.3744     5.4939    -0.4527 H       
  78 H78           11.1971     5.7797    -1.5843 H       
  79 H79           11.1289     7.4754    -1.0460 H       
  80 H80           15.2793     6.5445     0.7826 H       
  81 H81           15.2707     7.8343    -0.4441 H       
  82 H82           15.1206     8.2458     1.2811 H       
@<TRIPOS>BOND
   1    1    2 1
   2    1    3 2
   3    2   14 1
   4    2    5 1
   5    2   44 1
   6    3    4 1
   7    3    6 1
   8    4    5 2
   9    5   13 1
  10    6    7 1
  11    6   45 1
  12    7    8 ar
  13    7    9 ar
  14    8   12 ar
  15    8   46 1
  16    9   10 ar
  17    9   47 1
  18   10   11 ar
  19   10   30 1
  20   11   12 ar
  21   11   31 1
  22   12   48 1
  23   13   49 1
  24   13   50 1
  25   14   15 ar
  26   14   16 ar
  27   15   19 ar
  28   15   51 1
  29   16   17 ar
  30   17   18 ar
  31   17   20 1
  32   18   19 ar
  33   18   23 1
  34   19   25 1
  35   20   21 1
  36   20   24 1
  37   20   52 1
  38   21   22 1
  39   21   53 1
  40   21   54 1
  41   22   23 1
  42   22   55 1
  43   22   56 1
  44   23   24 1
  45   23   57 1
  46   24   58 1
  47   24   59 1
  48   25   26 2
  49   25   29 1
  50   26   27 1
  51   26   60 1
  52   27   28 2
  53   27   61 1
  54   28   29 1
  55   28   62 1
  56   31   32 1
  57   31   36 1
  58   32   33 1
  59   32   63 1
  60   32   64 1
  61   33   34 1
  62   33   65 1
  63   33   66 1
  64   34   35 1
  65   34   37 1
  66   34   67 1
  67   35   36 1
  68   35   68 1
  69   35   69 1
  70   36   70 1
  71   36   71 1
  72   37   38 1
  73   37   42 1
  74   38   39 1
  75   38   72 1
  76   38   73 1
  77   39   40 1
  78   39   74 1
  79   39   75 1
  80   40   41 1
  81   40   43 1
  82   41   42 1
  83   41   76 1
  84   41   77 1
  85   42   78 1
  86   42   79 1
  87   43   80 1
  88   43   81 1
  89   43   82 1

#	End of record

