#	Name: ASD01813296
#	Creating user name:	WinNT
#	Creation time:	15. 06. 2019 19:30

#	Modifying user name:	WinNT
#	Modification time:	15. 06. 2019 19:30

#	Program:	/corina/corina34_cracker 3.40 0067  02.08.2006

@<TRIPOS>MOLECULE
ASD01813296
  57   61    0    0    0
SMALL
NO_CHARGES


@<TRIPOS>ATOM
   1 C1            -0.0167     1.3818     0.0096 C.ar    
   2 C2             0.0021    -0.0041     0.0020 C.ar    
   3 C3             1.2135    -0.6718    -0.0132 C.ar    
   4 C4             2.3833     0.0831    -0.0203 C.ar    
   5 C5             2.2863     1.4846    -0.0119 C.ar    
   6 N6             1.0999     2.0788     0.0027 N.ar    
   7 N7             3.7227    -0.2430    -0.0354 N.pl3   
   8 C8             4.4803     0.8787    -0.0369 C.2     
   9 C9             3.6745     1.9801    -0.0230 C.2     
  10 C10            4.1062     3.3846    -0.0205 C.2     
  11 N11            5.4198     3.6858    -0.0322 N.am    
  12 O12            3.2779     4.2756    -0.0079 O.2     
  13 C13            5.8503     5.0862    -0.0297 C.3     
  14 C14            7.2574     5.1887     0.5668 C.3     
  15 C15            7.7298     6.6430     0.4931 C.3     
  16 O16            7.7012     7.0834    -0.8661 O.3     
  17 C17            6.4025     7.0545    -1.4616 C.3     
  18 C18            5.8768     5.6167    -1.4664 C.3     
  19 O19            7.2298     4.7641     1.9310 O.3     
  20 C20            4.2509    -1.6094    -0.0475 C.3     
  21 C21            4.3024    -2.1155    -1.4660 C.ar    
  22 C22            5.4392    -1.9155    -2.2282 C.ar    
  23 C23            3.2148    -2.7834    -1.9992 C.ar    
  24 C24            3.2569    -3.2498    -3.2976 C.ar    
  25 C25            4.3975    -3.0465    -4.0715 C.ar    
  26 C26            5.4917    -2.3770    -3.5279 C.ar    
  27 C27            4.4485    -3.5458    -5.4682 C.2     
  28 C28            5.5322    -3.4101    -6.3576 C.2     
  29 C29            5.1860    -3.9961    -7.5245 C.2     
  30 N30            3.9349    -4.4862    -7.3897 N.pl3   
  31 N31            3.4913    -4.1986    -6.0927 N.2     
  32 C32            3.1754    -5.1991    -8.4198 C.3     
  33 H33           -0.9647     1.8991     0.0169 H       
  34 H34           -0.9241    -0.5596     0.0083 H       
  35 H35            1.2509    -1.7512    -0.0190 H       
  36 H36            5.5600     0.8990    -0.0469 H       
  37 H37            6.0803     2.9755    -0.0422 H       
  38 H38            5.1573     5.6796     0.5667 H       
  39 H39            7.9400     4.5548     0.0008 H       
  40 H40            7.0699     7.2704     1.0924 H       
  41 H41            8.7474     6.7146     0.8771 H       
  42 H42            5.7253     7.6872    -0.8879 H       
  43 H43            6.4640     7.4225    -2.4858 H       
  44 H44            6.5316     4.9915    -2.0735 H       
  45 H45            4.8685     5.5989    -1.8800 H       
  46 H46            8.0893     4.8030     2.3725 H       
  47 H47            5.2549    -1.6146     0.3768 H       
  48 H48            3.6027    -2.2548     0.5453 H       
  49 H49            6.2871    -1.3971    -1.8056 H       
  50 H50            2.3312    -2.9405    -1.3985 H       
  51 H51            2.4074    -3.7718    -3.7127 H       
  52 H52            6.3783    -2.2167    -4.1235 H       
  53 H53            6.4726    -2.9236    -6.1447 H       
  54 H54            5.8014    -4.0608    -8.4096 H       
  55 H55            3.3725    -6.2683    -8.3420 H       
  56 H56            2.1104    -5.0148    -8.2788 H       
  57 H57            3.4781    -4.8446    -9.4051 H       
@<TRIPOS>BOND
   1    1    2 ar
   2    1    6 ar
   3    1   33 1
   4    2    3 ar
   5    2   34 1
   6    3    4 ar
   7    3   35 1
   8    4    5 ar
   9    4    7 1
  10    5    6 ar
  11    5    9 1
  12    7    8 1
  13    7   20 1
  14    8    9 2
  15    8   36 1
  16    9   10 1
  17   10   11 am
  18   10   12 2
  19   11   13 1
  20   11   37 1
  21   13   14 1
  22   13   18 1
  23   13   38 1
  24   14   15 1
  25   14   19 1
  26   14   39 1
  27   15   16 1
  28   15   40 1
  29   15   41 1
  30   16   17 1
  31   17   18 1
  32   17   42 1
  33   17   43 1
  34   18   44 1
  35   18   45 1
  36   19   46 1
  37   20   21 1
  38   20   47 1
  39   20   48 1
  40   21   22 ar
  41   21   23 ar
  42   22   26 ar
  43   22   49 1
  44   23   24 ar
  45   23   50 1
  46   24   25 ar
  47   24   51 1
  48   25   26 ar
  49   25   27 1
  50   26   52 1
  51   27   28 1
  52   27   31 2
  53   28   29 2
  54   28   53 1
  55   29   30 1
  56   29   54 1
  57   30   31 1
  58   30   32 1
  59   32   55 1
  60   32   56 1
  61   32   57 1

#	End of record

