#	Name: ASD08150560
#	Creating user name:	WinNT
#	Creation time:	15. 06. 2019 21:16

#	Modifying user name:	WinNT
#	Modification time:	15. 06. 2019 21:16

#	Program:	/corina/corina34_cracker 3.40 0067  02.08.2006

@<TRIPOS>MOLECULE
ASD08150560
  66   71    0    0    0
SMALL
NO_CHARGES


@<TRIPOS>ATOM
   1 N1            -1.1940    -0.8598    -0.9207 N.am    
   2 C2            -0.9810    -1.9031    -0.0955 C.2     
   3 C3             0.2668    -2.5583    -0.0644 C.2     
   4 C4             1.2763    -2.1437    -0.8714 C.2     
   5 C5             1.0557    -1.0467    -1.7414 C.ar    
   6 C6             2.0690    -0.5772    -2.5991 C.ar    
   7 N7             1.8628     0.4346    -3.4008 N.ar    
   8 C8             0.6874     1.0796    -3.4545 C.ar    
   9 C9            -0.3887     0.6753    -2.6268 C.ar    
  10 C10           -0.1979    -0.4161    -1.7475 C.ar    
  11 C11           -1.7533     2.4182    -3.5655 C.ar    
  12 C12           -0.6841     2.8131    -4.3807 C.ar    
  13 C13            0.5094     2.1627    -4.3307 C.ar    
  14 O14           -1.8795    -2.2855     0.6346 O.2     
  15 C15           -2.4436    -0.2293    -0.9368 C.ar    
  16 C16           -3.4265    -0.6553    -1.8204 C.ar    
  17 C17           -4.6588    -0.0314    -1.8334 C.ar    
  18 C18           -4.9140     1.0165    -0.9682 C.ar    
  19 C19           -3.9372     1.4431    -0.0869 C.ar    
  20 C20           -2.7051     0.8199    -0.0649 C.ar    
  21 C21           -1.6096     1.3544    -2.6906 C.ar    
  22 C22           -3.0456     3.1450    -3.6387 C.2     
  23 C23           -3.6177     3.6615    -4.7647 C.2     
  24 C24           -6.2592     1.6955    -0.9858 C.3     
  25 C25           -5.7261    -0.4929    -2.7921 C.3     
  26 N26           -7.2264     0.8857    -0.2330 N.3     
  27 C27           -8.4812     1.6220    -0.0254 C.3     
  28 C28           -9.4875     0.7180     0.6906 C.3     
  29 N29           -8.9204     0.2773     1.9727 N.3     
  30 C30           -7.6657    -0.4590     1.7651 C.3     
  31 C31           -6.6594     0.4450     1.0491 C.3     
  32 C32           -9.8876    -0.5325     2.7255 C.3     
  33 N33           -4.7809     4.2395    -4.4029 N.pl3   
  34 N34           -4.9375     4.0799    -3.0207 N.2     
  35 C35           -3.9074     3.4216    -2.5593 C.2     
  36 C36           -5.7188     4.9179    -5.3009 C.3     
  37 H37            0.4201    -3.3926     0.6040 H       
  38 H38            2.2340    -2.6425    -0.8508 H       
  39 H39            3.0342    -1.0617    -2.5943 H       
  40 H40           -0.8095     3.6449    -5.0581 H       
  41 H41            1.3227     2.4802    -4.9664 H       
  42 H42           -3.2276    -1.4732    -2.4970 H       
  43 H43           -4.1396     2.2618     0.5877 H       
  44 H44           -1.9429     1.1532     0.6238 H       
  45 H45           -2.4343     1.0513    -2.0626 H       
  46 H46           -3.2119     3.6161    -5.7646 H       
  47 H47           -6.1750     2.6806    -0.5269 H       
  48 H48           -6.5988     1.8024    -2.0161 H       
  49 H49           -6.3276    -1.2694    -2.3196 H       
  50 H50           -6.3644     0.3496    -3.0583 H       
  51 H51           -5.2582    -0.8927    -3.6917 H       
  52 H52           -8.2881     2.5051     0.5836 H       
  53 H53           -8.8879     1.9266    -0.9897 H       
  54 H54          -10.4090     1.2714     0.8715 H       
  55 H55           -9.7013    -0.1518     0.0694 H       
  56 H56           -7.2590    -0.7636     2.7294 H       
  57 H57           -7.8588    -1.3421     1.1561 H       
  58 H58           -5.7379    -0.1084     0.8682 H       
  59 H59           -6.4456     1.3148     1.6703 H       
  60 H60          -10.1571    -1.4126     2.1416 H       
  61 H61           -9.4424    -0.8455     3.6700 H       
  62 H62          -10.7811     0.0596     2.9236 H       
  63 H63           -3.7419     3.1443    -1.5287 H       
  64 H64           -6.4423     4.1975    -5.6822 H       
  65 H65           -6.2413     5.7033    -4.7546 H       
  66 H66           -5.1705     5.3579    -6.1339 H       
@<TRIPOS>BOND
   1    1    2 am
   2    1   10 1
   3    1   15 1
   4    2    3 1
   5    2   14 2
   6    3    4 2
   7    3   37 1
   8    4    5 1
   9    4   38 1
  10    5    6 ar
  11    5   10 ar
  12    6    7 ar
  13    6   39 1
  14    7    8 ar
  15    8    9 ar
  16    8   13 ar
  17    9   10 ar
  18    9   21 ar
  19   11   12 ar
  20   11   22 1
  21   11   21 ar
  22   12   13 ar
  23   12   40 1
  24   13   41 1
  25   15   16 ar
  26   15   20 ar
  27   16   17 ar
  28   16   42 1
  29   17   18 ar
  30   17   25 1
  31   18   19 ar
  32   18   24 1
  33   19   20 ar
  34   19   43 1
  35   20   44 1
  36   21   45 1
  37   22   23 2
  38   22   35 1
  39   23   33 1
  40   23   46 1
  41   24   26 1
  42   24   47 1
  43   24   48 1
  44   25   49 1
  45   25   50 1
  46   25   51 1
  47   26   27 1
  48   26   31 1
  49   27   28 1
  50   27   52 1
  51   27   53 1
  52   28   29 1
  53   28   54 1
  54   28   55 1
  55   29   30 1
  56   29   32 1
  57   30   31 1
  58   30   56 1
  59   30   57 1
  60   31   58 1
  61   31   59 1
  62   32   60 1
  63   32   61 1
  64   32   62 1
  65   33   34 1
  66   33   36 1
  67   34   35 2
  68   35   63 1
  69   36   64 1
  70   36   65 1
  71   36   66 1

#	End of record

