#	Name: ASD03090646
#	Creating user name:	WinNT
#	Creation time:	15. 06. 2019 20:29

#	Modifying user name:	WinNT
#	Modification time:	15. 06. 2019 20:29

#	Program:	/corina/corina34_cracker 3.40 0067  02.08.2006

@<TRIPOS>MOLECULE
ASD03090646
  39   40    0    0    0
SMALL
NO_CHARGES


@<TRIPOS>ATOM
   1 N1             0.5522     1.2026    -0.0406 N.am    
   2 C2             0.3513    -0.0698    -0.4373 C.2     
   3 O3             1.2344    -0.6727    -1.0162 O.2     
   4 N4            -0.8284    -0.6737    -0.1923 N.am    
   5 S5            -2.4715    -2.8908    -0.3668 S.3     
   6 C6            -1.0356    -1.9865    -0.6016 C.2     
   7 N7            -0.1725    -2.7304    -1.2254 N.2     
   8 N8            -0.5212    -3.9058    -1.5266 N.2     
   9 C9            -1.7178    -4.2616    -1.1819 C.2     
  10 C10           -2.3524    -5.6053    -1.4326 C.3     
  11 F11           -1.4091    -6.4677    -2.0015 F       
  12 F12           -2.8034    -6.1412    -0.2215 F       
  13 F13           -3.4337    -5.4545    -2.3073 F       
  14 C14            1.8153     1.7914    -0.1881 C.ar    
  15 C15            1.9208     3.1436    -0.4848 C.ar    
  16 C16            3.1658     3.7233    -0.6295 C.ar    
  17 C17            4.3108     2.9548    -0.4790 C.ar    
  18 C18            4.2061     1.6037    -0.1825 C.ar    
  19 C19            2.9618     1.0240    -0.0319 C.ar    
  20 O20            5.5364     3.5260    -0.6225 O.3     
  21 C21            5.5702     4.8967    -1.0254 C.3     
  22 C22            6.8859     5.5302    -0.5689 C.3     
  23 C23            6.9359     5.5563     0.9601 C.3     
  24 C24            5.4642     4.9831    -2.5492 C.3     
  25 H25           -0.1785     1.7120     0.3433 H       
  26 H26           -1.5328    -0.1927     0.2695 H       
  27 H27            1.0294     3.7418    -0.6027 H       
  28 H28            3.2481     4.7751    -0.8603 H       
  29 H29            5.0979     1.0060    -0.0655 H       
  30 H30            2.8804    -0.0270     0.2029 H       
  31 H31            4.7340     5.4293    -0.5722 H       
  32 H32            7.7226     4.9444    -0.9498 H       
  33 H33            6.9510     6.5485    -0.9520 H       
  34 H34            6.8708     4.5380     1.3432 H       
  35 H35            7.8733     6.0076     1.2853 H       
  36 H36            6.0993     6.1420     1.3410 H       
  37 H37            5.4899     6.0285    -2.8565 H       
  38 H38            6.3003     4.4505    -3.0024 H       
  39 H39            4.5268     4.5318    -2.8744 H       
@<TRIPOS>BOND
   1    1    2 am
   2    1   14 1
   3    1   25 1
   4    2    3 2
   5    2    4 am
   6    4    6 1
   7    4   26 1
   8    5    6 1
   9    5    9 1
  10    6    7 2
  11    7    8 1
  12    8    9 2
  13    9   10 1
  14   10   11 1
  15   10   12 1
  16   10   13 1
  17   14   15 ar
  18   14   19 ar
  19   15   16 ar
  20   15   27 1
  21   16   17 ar
  22   16   28 1
  23   17   18 ar
  24   17   20 1
  25   18   19 ar
  26   18   29 1
  27   19   30 1
  28   20   21 1
  29   21   22 1
  30   21   24 1
  31   21   31 1
  32   22   23 1
  33   22   32 1
  34   22   33 1
  35   23   34 1
  36   23   35 1
  37   23   36 1
  38   24   37 1
  39   24   38 1
  40   24   39 1

#	End of record

