#	Name: ASD00790002
#	Creating user name:	WinNT
#	Creation time:	15. 06. 2019 18:37

#	Modifying user name:	WinNT
#	Modification time:	15. 06. 2019 18:37

#	Program:	/corina/corina34_cracker 3.40 0067  02.08.2006

@<TRIPOS>MOLECULE
ASD00790002
   1    0    0    0    0
SMALL
NO_CHARGES


@<TRIPOS>ATOM
   1 S1             0.0000     0.0000     0.0000 Du      
@<TRIPOS>BOND

#	End of record

