#	Name: ASD00170743
#	Creating user name:	WinNT
#	Creation time:	15. 06. 2019 18:32

#	Modifying user name:	WinNT
#	Modification time:	15. 06. 2019 18:32

#	Program:	/corina/corina34_cracker 3.40 0067  02.08.2006

@<TRIPOS>MOLECULE
ASD00170743
  36   38    0    0    0
SMALL
NO_CHARGES


@<TRIPOS>ATOM
   1 C1            -0.0165     1.2107     0.0012 C.2     
   2 O2             0.6164     1.0891    -1.0322 O.2     
   3 C3             0.5110     0.6460     1.2623 C.ar    
   4 C4             1.6755    -0.1240     1.2521 C.ar    
   5 C5             2.1629    -0.6478     2.4320 C.ar    
   6 C6             1.4980    -0.4108     3.6253 C.ar    
   7 C7             0.3424     0.3519     3.6402 C.ar    
   8 C8            -0.1505     0.8857     2.4678 C.ar    
   9 Cl9            2.1162    -1.0731     5.1061 Cl      
  10 Cl10           3.6108    -1.6056     2.4222 Cl      
  11 C11           -1.4077     3.2842     0.1052 C.2     
  12 C12           -1.2941     1.9199    -0.0038 C.2     
  13 C13           -2.5834     1.2573    -0.1255 C.2     
  14 C14           -3.6100     2.1135    -0.1060 C.2     
  15 S15           -3.0417     3.7646     0.0620 S.3     
  16 C16           -2.7419    -0.2105    -0.2571 C.ar    
  17 C17           -3.6337    -0.8950     0.5681 C.ar    
  18 C18           -3.7770    -2.2613     0.4411 C.ar    
  19 C19           -3.0378    -2.9525    -0.5025 C.ar    
  20 C20           -2.1514    -2.2790    -1.3234 C.ar    
  21 C21           -2.0044    -0.9114    -1.2101 C.ar    
  22 C22           -4.7402    -3.0025     1.3321 C.3     
  23 F23           -5.9984    -3.0488     0.7221 F       
  24 F24           -4.2748    -4.3053     1.5403 F       
  25 F25           -4.8418    -2.3416     2.5609 F       
  26 N26           -0.3414     4.1496     0.2377 N.pl3   
  27 H27            2.1935    -0.3096     0.3228 H       
  28 H28           -0.1716     0.5330     4.5727 H       
  29 H29           -1.0494     1.4840     2.4818 H       
  30 H30           -4.6485     1.8274    -0.1832 H       
  31 H31           -4.2107    -0.3567     1.3055 H       
  32 H32           -3.1530    -4.0220    -0.5981 H       
  33 H33           -1.5768    -2.8238    -2.0579 H       
  34 H34           -1.3158    -0.3859    -1.8552 H       
  35 H35            0.5582     3.7997     0.3343 H       
  36 H36           -0.4912     5.1080     0.2344 H       
@<TRIPOS>BOND
   1    1    2 2
   2    1    3 1
   3    1   12 1
   4    3    4 ar
   5    3    8 ar
   6    4    5 ar
   7    4   27 1
   8    5    6 ar
   9    5   10 1
  10    6    7 ar
  11    6    9 1
  12    7    8 ar
  13    7   28 1
  14    8   29 1
  15   11   12 2
  16   11   15 1
  17   11   26 1
  18   12   13 1
  19   13   14 2
  20   13   16 1
  21   14   15 1
  22   14   30 1
  23   16   17 ar
  24   16   21 ar
  25   17   18 ar
  26   17   31 1
  27   18   19 ar
  28   18   22 1
  29   19   20 ar
  30   19   32 1
  31   20   21 ar
  32   20   33 1
  33   21   34 1
  34   22   23 1
  35   22   24 1
  36   22   25 1
  37   26   35 1
  38   26   36 1

#	End of record

