#	Name: ASD01880633
#	Creating user name:	WinNT
#	Creation time:	15. 06. 2019 19:41

#	Modifying user name:	WinNT
#	Modification time:	15. 06. 2019 19:41

#	Program:	/corina/corina34_cracker 3.40 0067  02.08.2006

@<TRIPOS>MOLECULE
ASD01880633
  47   51    0    0    0
SMALL
NO_CHARGES


@<TRIPOS>ATOM
   1 C1            -0.0169     1.3927     0.0097 C.ar    
   2 C2             0.0021    -0.0041     0.0020 C.ar    
   3 C3             1.2135    -0.6907    -0.0132 C.ar    
   4 C4             2.4022     0.0193    -0.0208 C.ar    
   5 C5             2.3727     1.4246    -0.0130 C.ar    
   6 C6             1.1522     2.0999     0.0023 C.ar    
   7 N7             3.6286    -0.6376    -0.0355 N.pl3   
   8 C8             4.7929     0.0687    -0.0425 C.2     
   9 N9             4.8015     1.4561    -0.0357 N.am    
  10 C10            3.6502     2.1585    -0.0210 C.2     
  11 N11            3.9493    -2.0026    -0.0451 N.2     
  12 C12            5.2606    -2.1201    -0.0575 C.2     
  13 C13            5.8179    -0.8302    -0.0562 C.2     
  14 O14            3.6662     3.3751    -0.0154 O.2     
  15 C15           -1.2742    -0.7594     0.0106 C.ar    
  16 C16            6.0194    -3.3954    -0.0702 C.ar    
  17 C17           -2.4985    -0.0852     0.0264 C.ar    
  18 C18           -3.6615    -0.8361     0.0335 C.ar    
  19 C19           -3.5757    -2.2162     0.0247 C.ar    
  20 N20           -2.4053    -2.8250     0.0103 N.ar    
  21 C21           -1.2725    -2.1532    -0.0027 C.ar    
  22 C22            5.3413    -4.6126    -0.0702 C.ar    
  23 C23            7.4126    -3.3798    -0.0880 C.ar    
  24 C24            8.1133    -4.5688    -0.0997 C.ar    
  25 C25            7.4351    -5.7744    -0.0938 C.ar    
  26 C26            6.0521    -5.7956    -0.0820 C.ar    
  27 C27            6.0812     2.1693    -0.0434 C.3     
  28 C28            6.5141     2.4247    -1.4885 C.3     
  29 O29            5.5839     3.3104    -2.1149 O.3     
  30 H30           -0.9612     1.9167     0.0170 H       
  31 H31            1.2257    -1.7706    -0.0188 H       
  32 H32            1.1314     3.1797     0.0087 H       
  33 H33            6.8715    -0.5928    -0.0642 H       
  34 H34           -2.5362     0.9942     0.0333 H       
  35 H35           -4.6255    -0.3493     0.0460 H       
  36 H36           -4.4810    -2.8051     0.0302 H       
  37 H37           -0.3338    -2.6871    -0.0143 H       
  38 H38            4.2615    -4.6303    -0.0605 H       
  39 H39            7.9431    -2.4391    -0.0930 H       
  40 H40            9.1932    -4.5580    -0.1139 H       
  41 H41            7.9874    -6.7024    -0.1034 H       
  42 H42            5.5275    -6.7396    -0.0774 H       
  43 H43            5.9698     3.1210     0.4761 H       
  44 H44            6.8362     1.5663     0.4609 H       
  45 H45            7.5065     2.8753    -1.4962 H       
  46 H46            6.5395     1.4805    -2.0324 H       
  47 H47            5.7963     3.5170    -3.0354 H       
@<TRIPOS>BOND
   1    1    2 ar
   2    1    6 ar
   3    1   30 1
   4    2    3 ar
   5    2   15 1
   6    3    4 ar
   7    3   31 1
   8    4    5 ar
   9    4    7 1
  10    5    6 ar
  11    5   10 1
  12    6   32 1
  13    7    8 1
  14    7   11 1
  15    8    9 1
  16    8   13 2
  17    9   10 am
  18    9   27 1
  19   10   14 2
  20   11   12 2
  21   12   13 1
  22   12   16 1
  23   13   33 1
  24   15   17 ar
  25   15   21 ar
  26   16   22 ar
  27   16   23 ar
  28   17   18 ar
  29   17   34 1
  30   18   19 ar
  31   18   35 1
  32   19   20 ar
  33   19   36 1
  34   20   21 ar
  35   21   37 1
  36   22   26 ar
  37   22   38 1
  38   23   24 ar
  39   23   39 1
  40   24   25 ar
  41   24   40 1
  42   25   26 ar
  43   25   41 1
  44   26   42 1
  45   27   28 1
  46   27   43 1
  47   27   44 1
  48   28   29 1
  49   28   45 1
  50   28   46 1
  51   29   47 1

#	End of record

