#	Name: ASD03540095
#	Creating user name:	WinNT
#	Creation time:	15. 06. 2019 20:42

#	Modifying user name:	WinNT
#	Modification time:	15. 06. 2019 20:42

#	Program:	/corina/corina34_cracker 3.40 0067  02.08.2006

@<TRIPOS>MOLECULE
ASD03540095
  50   54    0    0    0
SMALL
NO_CHARGES


@<TRIPOS>ATOM
   1 C1            -0.0180     1.4732     0.0101 C.2     
   2 C2             0.0021    -0.0041     0.0020 C.ar    
   3 C3             1.2173    -0.6860    -0.0132 C.ar    
   4 C4             1.2270    -2.0795    -0.0203 C.ar    
   5 C5             2.5105    -2.8109    -0.0360 C.2     
   6 C6             0.0198    -2.7834    -0.0121 C.ar    
   7 C7            -1.1806    -2.1014     0.0026 C.ar    
   8 C8            -1.1975    -0.7208     0.0155 C.ar    
   9 O9             1.0256     2.0948     0.0035 O.2     
  10 O10           -1.1936     2.1308     0.0193 O.3     
  11 O11            3.5590    -2.1976    -0.0428 O.2     
  12 O12            2.5181    -4.1579    -0.0429 O.3     
  13 C13           -1.1373     3.5817     0.0269 C.3     
  14 O14           -6.3536     5.6563     0.3238 O.3     
  15 C15           -6.3038     6.0754     1.7005 C.3     
  16 O16           -5.2941     5.2279     2.2798 O.3     
  17 C17           -4.4596     4.8996     1.2507 C.ar    
  18 C18           -5.1111     5.1630     0.0479 C.ar    
  19 C19           -3.1729     4.3872     1.2394 C.ar    
  20 C20           -2.5375     4.1387     0.0366 C.ar    
  21 C21           -3.1837     4.4005    -1.1568 C.ar    
  22 C22           -4.4686     4.9117    -1.1531 C.ar    
  23 C23            3.8155    -4.8098    -0.0583 C.3     
  24 O24            3.1091   -10.3796    -0.3405 O.3     
  25 C25            3.4905   -10.5410    -1.7196 C.3     
  26 O26            3.2325    -9.2485    -2.2994 O.3     
  27 C27            3.3554    -8.3574    -1.2727 C.ar    
  28 C28            3.2795    -9.0530    -0.0681 C.ar    
  29 C29            3.5287    -6.9833    -1.2650 C.ar    
  30 C30            3.6264    -6.3049    -0.0640 C.ar    
  31 C31            3.5516    -6.9950     1.1311 C.ar    
  32 C32            3.3782    -8.3669     1.1310 C.ar    
  33 H33            2.1473    -0.1370    -0.0199 H       
  34 H34            0.0259    -3.8634    -0.0176 H       
  35 H35           -2.1106    -2.6504     0.0085 H       
  36 H36           -2.1399    -0.1936     0.0318 H       
  37 H37           -0.6055     3.9200     0.9162 H       
  38 H38           -0.6140     3.9297    -0.8637 H       
  39 H39           -6.0115     7.1230     1.7716 H       
  40 H40           -7.2660     5.9114     2.1857 H       
  41 H41           -2.6652     4.1823     2.1704 H       
  42 H42           -2.6842     4.2051    -2.0942 H       
  43 H43           -4.9714     5.1146    -2.0871 H       
  44 H44            4.3625    -4.5093    -0.9519 H       
  45 H45            4.3791    -4.5182     0.8279 H       
  46 H46            4.5484   -10.7915    -1.7975 H       
  47 H47            2.8786   -11.3050    -2.1993 H       
  48 H48            3.5882    -6.4415    -2.1974 H       
  49 H49            3.6284    -6.4617     2.0670 H       
  50 H50            3.3193    -8.9036     2.0664 H       
@<TRIPOS>BOND
   1    1    2 1
   2    1    9 2
   3    1   10 1
   4    2    3 ar
   5    2    8 ar
   6    3    4 ar
   7    3   33 1
   8    4    5 1
   9    4    6 ar
  10    5   11 2
  11    5   12 1
  12    6    7 ar
  13    6   34 1
  14    7    8 ar
  15    7   35 1
  16    8   36 1
  17   10   13 1
  18   12   23 1
  19   13   20 1
  20   13   37 1
  21   13   38 1
  22   14   15 1
  23   14   18 1
  24   15   16 1
  25   15   39 1
  26   15   40 1
  27   16   17 1
  28   17   18 ar
  29   17   19 ar
  30   18   22 ar
  31   19   20 ar
  32   19   41 1
  33   20   21 ar
  34   21   22 ar
  35   21   42 1
  36   22   43 1
  37   23   30 1
  38   23   44 1
  39   23   45 1
  40   24   25 1
  41   24   28 1
  42   25   26 1
  43   25   46 1
  44   25   47 1
  45   26   27 1
  46   27   28 ar
  47   27   29 ar
  48   28   32 ar
  49   29   30 ar
  50   29   48 1
  51   30   31 ar
  52   31   32 ar
  53   31   49 1
  54   32   50 1

#	End of record

