#	Name: ASD01883601
#	Creating user name:	WinNT
#	Creation time:	15. 06. 2019 19:46

#	Modifying user name:	WinNT
#	Modification time:	15. 06. 2019 19:46

#	Program:	/corina/corina34_cracker 3.40 0067  02.08.2006

@<TRIPOS>MOLECULE
ASD01883601
  48   51    0    0    0
SMALL
NO_CHARGES


@<TRIPOS>ATOM
   1 C1            -0.5300     1.4678     0.1659 C.2     
   2 C2            -0.6535     0.1335     0.3255 C.2     
   3 N3             0.3118    -0.5884     0.9547 N.am    
   4 C4             1.4202     0.0023     1.4378 C.2     
   5 C5             1.5989     1.3859     1.2984 C.2     
   6 C6             0.6181     2.1306     0.6578 C.2     
   7 O7             2.2724    -0.6684     1.9993 O.2     
   8 Cl8            3.0255     2.1565     1.9185 Cl      
   9 C9             0.7720     3.5931     0.4916 C.ar    
  10 C10            0.0318     4.4707     1.2888 C.ar    
  11 C11            0.1790     5.8346     1.1297 C.ar    
  12 C12            1.0605     6.3326     0.1798 C.ar    
  13 C13            1.7972     5.4616    -0.6144 C.ar    
  14 C14            1.6609     4.0998    -0.4578 C.ar    
  15 O15            1.2030     7.6742     0.0258 O.3     
  16 C16            2.1290     8.3084     0.7890 C.ar    
  17 C17            2.9815     7.5887     1.6229 C.ar    
  18 C18            3.9097     8.2704     2.3827 C.ar    
  19 N19            3.9948     9.5860     2.3263 N.ar    
  20 C20            3.2051    10.3026     1.5488 C.ar    
  21 C21            2.2549     9.6951     0.7540 C.ar    
  22 C22            0.1419    -2.0352     1.1098 C.3     
  23 C23            0.7463    -2.7522    -0.0991 C.3     
  24 C24            3.3469    11.8027     1.5244 C.3     
  25 C25            4.8376     7.5029     3.2888 C.3     
  26 C26            0.7743    -4.2817    -0.0719 C.3     
  27 C27           -0.2033    -3.5508    -0.9943 C.3     
  28 F28           -0.8262     3.9857     2.2128 F       
  29 H29           -1.3034     2.0269    -0.3396 H       
  30 H30           -1.5323    -0.3683    -0.0519 H       
  31 H31           -0.3923     6.5144     1.7444 H       
  32 H32            2.4815     5.8534    -1.3524 H       
  33 H33            2.2342     3.4247    -1.0758 H       
  34 H34            2.9165     6.5119     1.6743 H       
  35 H35            1.6118    10.2874     0.1200 H       
  36 H36            0.6468    -2.3650     2.0178 H       
  37 H37           -0.9201    -2.2710     1.1786 H       
  38 H38            1.5813    -2.2420    -0.5792 H       
  39 H39            4.0638    12.0874     0.7542 H       
  40 H40            2.3798    12.2556     1.3059 H       
  41 H41            3.6998    12.1502     2.4954 H       
  42 H42            5.7438     7.2406     2.7428 H       
  43 H43            5.0975     8.1195     4.1492 H       
  44 H44            4.3427     6.5935     3.6297 H       
  45 H45            1.6276    -4.7777    -0.5345 H       
  46 H46            0.3622    -4.7771     0.8072 H       
  47 H47           -1.2587    -3.5653    -0.7220 H       
  48 H48            0.0067    -3.5659    -2.0637 H       
@<TRIPOS>BOND
   1    1    2 2
   2    1    6 1
   3    1   29 1
   4    2    3 1
   5    2   30 1
   6    3    4 am
   7    3   22 1
   8    4    5 1
   9    4    7 2
  10    5    6 2
  11    5    8 1
  12    6    9 1
  13    9   10 ar
  14    9   14 ar
  15   10   11 ar
  16   10   28 1
  17   11   12 ar
  18   11   31 1
  19   12   13 ar
  20   12   15 1
  21   13   14 ar
  22   13   32 1
  23   14   33 1
  24   15   16 1
  25   16   17 ar
  26   16   21 ar
  27   17   18 ar
  28   17   34 1
  29   18   19 ar
  30   18   25 1
  31   19   20 ar
  32   20   21 ar
  33   20   24 1
  34   21   35 1
  35   22   23 1
  36   22   36 1
  37   22   37 1
  38   23   26 1
  39   23   27 1
  40   23   38 1
  41   24   39 1
  42   24   40 1
  43   24   41 1
  44   25   42 1
  45   25   43 1
  46   25   44 1
  47   26   27 1
  48   26   45 1
  49   26   46 1
  50   27   47 1
  51   27   48 1

#	End of record

