#	Name: ASD03912052
#	Creating user name:	WinNT
#	Creation time:	15. 06. 2019 20:47

#	Modifying user name:	WinNT
#	Modification time:	15. 06. 2019 20:47

#	Program:	/corina/corina34_cracker 3.40 0067  02.08.2006

@<TRIPOS>MOLECULE
ASD03912052
  73   75    0    0    0
SMALL
NO_CHARGES


@<TRIPOS>ATOM
   1 C1             0.5493    16.2432    -5.2035 C.ar    
   2 C2             0.9831    16.4167    -6.5051 C.ar    
   3 C3             1.5728    15.3676    -7.1861 C.ar    
   4 C4             1.7299    14.1425    -6.5680 C.ar    
   5 C5             1.2953    13.9651    -5.2610 C.ar    
   6 C6             0.7091    15.0224    -4.5777 C.ar    
   7 C7            -0.0928    17.3893    -4.4651 C.3     
   8 C8             2.0441    15.5610    -8.6044 C.3     
   9 N9             1.4530    12.7252    -4.6319 N.am    
  10 C10            0.5314    12.2965    -3.7469 C.2     
  11 C11            0.6453    10.9181    -3.1485 C.3     
  12 O12           -0.3897    13.0201    -3.4321 O.2     
  13 C13           -0.5006    10.6871    -2.1974 C.ar    
  14 C14           -1.6816    10.1370    -2.6604 C.ar    
  15 C15           -2.7336     9.9242    -1.7906 C.ar    
  16 C16           -2.6043    10.2631    -0.4515 C.ar    
  17 C17           -1.4183    10.8149     0.0106 C.ar    
  18 C18           -0.3673    11.0204    -0.8622 C.ar    
  19 O19           -3.6378    10.0552     0.4060 O.3     
  20 C20           -3.4136    10.3722     1.7813 C.3     
  21 C21           -2.2516     9.5727     2.3121 C.2     
  22 C22           -3.1325    11.8771     1.9362 C.3     
  23 C23           -4.2405    12.4405     2.8499 C.3     
  24 C24           -4.7297    11.2116     3.6558 C.3     
  25 C25           -4.6821    10.0724     2.6063 C.3     
  26 N26           -2.0627     8.3034     1.9001 N.am    
  27 O27           -1.4864    10.0715     3.1100 O.2     
  28 C28           -0.8779     7.5604     2.3363 C.3     
  29 C29           -1.1455     6.9318     3.6796 C.2     
  30 O30           -2.2160     7.0884     4.2174 O.2     
  31 O31           -0.1945     6.1979     4.2785 O.3     
  32 C32           -0.5578     6.4663     1.3159 C.3     
  33 C33           -0.1646     7.1097    -0.0154 C.3     
  34 C34            0.1555     6.0156    -1.0358 C.3     
  35 C35            0.5486     6.6590    -2.3671 C.3     
  36 N36            0.8559     5.6085    -3.3469 N.3     
  37 H37            0.8607    17.3735    -6.9908 H       
  38 H38            2.1899    13.3233    -7.1006 H       
  39 H39            0.3704    14.8877    -3.5611 H       
  40 H40           -1.1696    17.3722    -4.6335 H       
  41 H41            0.1098    17.2932    -3.3984 H       
  42 H42            0.3170    18.3314    -4.8294 H       
  43 H43            3.0797    15.9010    -8.5999 H       
  44 H44            1.9743    14.6157    -9.1425 H       
  45 H45            1.4191    16.3062    -9.0965 H       
  46 H46            2.2257    12.1742    -4.8328 H       
  47 H47            0.6135    10.1731    -3.9435 H       
  48 H48            1.5883    10.8332    -2.6085 H       
  49 H49           -1.7819     9.8737    -3.7030 H       
  50 H50           -3.6559     9.4948    -2.1528 H       
  51 H51           -1.3151    11.0795     1.0526 H       
  52 H52            0.5562    11.4500    -0.5030 H       
  53 H53           -2.1561    12.0292     2.3962 H       
  54 H54           -3.1672    12.3656     0.9625 H       
  55 H55           -3.8341    13.1986     3.5194 H       
  56 H56           -5.0537    12.8536     2.2531 H       
  57 H57           -4.0550    11.0002     4.4854 H       
  58 H58           -5.7478    11.3648     4.0139 H       
  59 H59           -5.5665    10.1028     1.9699 H       
  60 H60           -4.5983     9.1035     3.0986 H       
  61 H61           -2.7113     7.8819     1.3148 H       
  62 H62           -0.0308     8.2417     2.4163 H       
  63 H63           -0.4125     5.8149     5.1393 H       
  64 H64            0.2684     5.8574     1.6831 H       
  65 H65           -1.4360     5.8373     1.1701 H       
  66 H66           -0.9908     7.7186    -0.3826 H       
  67 H67            0.7135     7.7387     0.1304 H       
  68 H68            0.9816     5.4067    -0.6686 H       
  69 H69           -0.7227     5.3866    -1.1816 H       
  70 H70           -0.2775     7.2679    -2.7344 H       
  71 H71            1.4268     7.2880    -2.2213 H       
  72 H72            1.1186     6.0083    -4.2353 H       
  73 H73            1.5753     4.9911    -3.0013 H       
@<TRIPOS>BOND
   1    1    2 ar
   2    1    7 1
   3    1    6 ar
   4    2    3 ar
   5    2   37 1
   6    3    4 ar
   7    3    8 1
   8    4    5 ar
   9    4   38 1
  10    5    6 ar
  11    5    9 1
  12    6   39 1
  13    7   40 1
  14    7   41 1
  15    7   42 1
  16    8   43 1
  17    8   44 1
  18    8   45 1
  19    9   10 am
  20    9   46 1
  21   10   11 1
  22   10   12 2
  23   11   13 1
  24   11   47 1
  25   11   48 1
  26   13   14 ar
  27   13   18 ar
  28   14   15 ar
  29   14   49 1
  30   15   16 ar
  31   15   50 1
  32   16   17 ar
  33   16   19 1
  34   17   18 ar
  35   17   51 1
  36   18   52 1
  37   19   20 1
  38   20   21 1
  39   20   22 1
  40   20   25 1
  41   21   26 am
  42   21   27 2
  43   22   23 1
  44   22   53 1
  45   22   54 1
  46   23   24 1
  47   23   55 1
  48   23   56 1
  49   24   25 1
  50   24   57 1
  51   24   58 1
  52   25   59 1
  53   25   60 1
  54   26   28 1
  55   26   61 1
  56   28   29 1
  57   28   32 1
  58   28   62 1
  59   29   30 2
  60   29   31 1
  61   31   63 1
  62   32   33 1
  63   32   64 1
  64   32   65 1
  65   33   34 1
  66   33   66 1
  67   33   67 1
  68   34   35 1
  69   34   68 1
  70   34   69 1
  71   35   36 1
  72   35   70 1
  73   35   71 1
  74   36   72 1
  75   36   73 1

#	End of record

