#	Name: ASD01880581
#	Creating user name:	WinNT
#	Creation time:	15. 06. 2019 19:41

#	Modifying user name:	WinNT
#	Modification time:	15. 06. 2019 19:41

#	Program:	/corina/corina34_cracker 3.40 0067  02.08.2006

@<TRIPOS>MOLECULE
ASD01880581
  54   57    0    0    0
SMALL
NO_CHARGES


@<TRIPOS>ATOM
   1 N1            -0.0168     1.3124     0.0133 N.ar    
   2 C2             0.0031    -0.0058     0.0027 C.ar    
   3 N3             1.1342    -0.6838    -0.0157 N.ar    
   4 C4             2.3037    -0.0603    -0.0244 C.ar    
   5 C5             2.3316     1.3205    -0.0139 C.ar    
   6 C6             1.1165     2.0082     0.0056 C.ar    
   7 C7             3.6409     2.0666    -0.0228 C.3     
   8 O8             4.7203     1.1356     0.0791 O.3     
   9 C9             5.9771     1.6476     0.0850 C.ar    
  10 C10            7.0738     0.7968     0.1818 C.ar    
  11 C11            8.3446     1.3160     0.1872 C.ar    
  12 C12            8.5452     2.6974     0.0959 C.ar    
  13 C13            7.4402     3.5475    -0.0015 C.ar    
  14 C14            6.1677     3.0209    -0.0114 C.ar    
  15 C15            9.7149     0.6918     0.2770 C.3     
  16 N16           10.6742     1.8011     0.2302 N.am    
  17 C17            9.9952     2.9563     0.1257 C.2     
  18 O18           10.5051     4.0583     0.0641 O.2     
  19 Br19          -1.6351    -0.9503     0.0150 Br      
  20 N20            1.0920     3.3933     0.0163 N.3     
  21 C21            0.5157     3.8957    -1.1620 C.3     
  22 C22            0.6576     5.4305    -1.2501 C.3     
  23 C23           -0.3309     6.0727    -0.3109 C.3     
  24 O24            0.2187     6.3155     1.0003 O.3     
  25 C25            1.0454     5.2702     1.5442 C.3     
  26 C26            0.4806     3.9019     1.2598 C.3     
  27 C27           14.2108     1.3875    -1.0688 C.3     
  28 C28           12.6881     1.5234    -1.1295 C.3     
  29 C29           12.1323     1.6710     0.2884 C.3     
  30 H30            3.2241    -0.6253    -0.0392 H       
  31 H31            3.7325     2.6287    -0.9521 H       
  32 H32            3.6731     2.7541     0.8225 H       
  33 H33            6.9255    -0.2706     0.2530 H       
  34 H34            7.5841     4.6155    -0.0721 H       
  35 H35            5.3142     3.6783    -0.0871 H       
  36 H36            9.8177     0.1469     1.2155 H       
  37 H37            9.8769     0.0205    -0.5663 H       
  38 H38            1.0093     3.4422    -2.0216 H       
  39 H39           -0.5422     3.6339    -1.1810 H       
  40 H40            1.6698     5.7196    -0.9673 H       
  41 H41            0.4560     5.7571    -2.2703 H       
  42 H42           -0.6551     7.0221    -0.7373 H       
  43 H43           -1.1981     5.4196    -0.2130 H       
  44 H44            2.0410     5.3412     1.1064 H       
  45 H45            1.1233     5.4046     2.6231 H       
  46 H46           -0.6001     3.9703     1.1353 H       
  47 H47            0.7156     3.2298     2.0851 H       
  48 H48           14.6067     1.2823    -2.0788 H       
  49 H49           14.6366     2.2759    -0.6023 H       
  50 H50           14.4739     0.5074    -0.4819 H       
  51 H51           12.4249     2.4034    -1.7163 H       
  52 H52           12.2623     0.6350    -1.5959 H       
  53 H53           12.5580     2.5594     0.7548 H       
  54 H54           12.3954     0.7910     0.8752 H       
@<TRIPOS>BOND
   1    1    2 ar
   2    1    6 ar
   3    2    3 ar
   4    2   19 1
   5    3    4 ar
   6    4    5 ar
   7    4   30 1
   8    5    6 ar
   9    5    7 1
  10    6   20 1
  11    7    8 1
  12    7   31 1
  13    7   32 1
  14    8    9 1
  15    9   10 ar
  16    9   14 ar
  17   10   11 ar
  18   10   33 1
  19   11   12 ar
  20   11   15 1
  21   12   13 ar
  22   12   17 1
  23   13   14 ar
  24   13   34 1
  25   14   35 1
  26   15   16 1
  27   15   36 1
  28   15   37 1
  29   16   17 am
  30   16   29 1
  31   17   18 2
  32   20   21 1
  33   20   26 1
  34   21   22 1
  35   21   38 1
  36   21   39 1
  37   22   23 1
  38   22   40 1
  39   22   41 1
  40   23   24 1
  41   23   42 1
  42   23   43 1
  43   24   25 1
  44   25   26 1
  45   25   44 1
  46   25   45 1
  47   26   46 1
  48   26   47 1
  49   27   28 1
  50   27   48 1
  51   27   49 1
  52   27   50 1
  53   28   29 1
  54   28   51 1
  55   28   52 1
  56   29   53 1
  57   29   54 1

#	End of record

