#	Name: ASD01901136
#	Creating user name:	WinNT
#	Creation time:	15. 06. 2019 19:53

#	Modifying user name:	WinNT
#	Modification time:	15. 06. 2019 19:53

#	Program:	/corina/corina34_cracker 3.40 0067  02.08.2006

@<TRIPOS>MOLECULE
ASD01901136
  45   47    0    0    0
SMALL
NO_CHARGES


@<TRIPOS>ATOM
   1 C1            -0.0166     1.3750     0.0096 C.ar    
   2 C2             0.0021    -0.0041     0.0020 C.ar    
   3 C3             1.2078    -0.6830    -0.0131 C.ar    
   4 C4             2.4027     0.0149    -0.0208 C.ar    
   5 C5             2.3997     1.3941    -0.0129 C.ar    
   6 C6             1.1860     2.0866     0.0019 C.ar    
   7 C7             1.1748     3.5185     0.0093 C.1     
   8 C8             1.1655     4.6925     0.0153 C.1     
   9 C9             1.1543     6.1244     0.0226 C.ar    
  10 C10            2.3584     6.8350     0.0149 C.ar    
  11 C11            2.3428     8.2133     0.0221 C.ar    
  12 C12            1.1310     8.8967     0.0373 C.ar    
  13 C13           -0.0674     8.1936     0.0450 C.ar    
  14 C14           -0.0606     6.8156     0.0317 C.ar    
  15 N15            1.1191    10.2976     0.0455 N.am    
  16 C16            1.1245    10.9525     1.2184 C.2     
  17 N17            0.8761    12.2703     1.2893 N.am    
  18 C18            0.4675    13.0240     0.1024 C.3     
  19 C19            1.1916    12.4725    -1.1279 C.3     
  20 C20            1.1081    10.9671    -1.1217 C.2     
  21 C21           -1.0440    12.8882    -0.0923 C.3     
  22 C22            0.8271    14.4996     0.2867 C.3     
  23 O23            1.3594    10.3375     2.2400 O.2     
  24 C24            1.0155    12.9636     2.5723 C.3     
  25 Cl25           3.8367     9.0974     0.0125 Cl      
  26 O26            1.0273    10.3602    -2.1682 O.2     
  27 H27           -0.9584     1.9035     0.0169 H       
  28 H28           -0.9266    -0.5554     0.0083 H       
  29 H29            1.2163    -1.7630    -0.0187 H       
  30 H30            3.3399    -0.5217    -0.0326 H       
  31 H31            3.3330     1.9375    -0.0182 H       
  32 H32            3.2993     6.3048     0.0038 H       
  33 H33           -1.0058     8.7280     0.0569 H       
  34 H34           -0.9928     6.2704     0.0328 H       
  35 H35            0.7222    12.8612    -2.0315 H       
  36 H36            2.2382    12.7758    -1.1008 H       
  37 H37           -1.5599    13.2818     0.7835 H       
  38 H38           -1.3484    13.4492    -0.9759 H       
  39 H39           -1.3005    11.8370    -0.2232 H       
  40 H40            1.9038    14.5966     0.4259 H       
  41 H41            0.5229    15.0608    -0.5968 H       
  42 H42            0.3107    14.8928     1.1624 H       
  43 H43            1.3239    12.2519     3.3382 H       
  44 H44            1.7667    13.7481     2.4817 H       
  45 H45            0.0595    13.4064     2.8518 H       
@<TRIPOS>BOND
   1    1    2 ar
   2    1    6 ar
   3    1   27 1
   4    2    3 ar
   5    2   28 1
   6    3    4 ar
   7    3   29 1
   8    4    5 ar
   9    4   30 1
  10    5    6 ar
  11    5   31 1
  12    6    7 1
  13    7    8 3
  14    8    9 1
  15    9   10 ar
  16    9   14 ar
  17   10   11 ar
  18   10   32 1
  19   11   12 ar
  20   11   25 1
  21   12   13 ar
  22   12   15 1
  23   13   14 ar
  24   13   33 1
  25   14   34 1
  26   15   16 am
  27   15   20 am
  28   16   17 am
  29   16   23 2
  30   17   18 1
  31   17   24 1
  32   18   19 1
  33   18   21 1
  34   18   22 1
  35   19   20 1
  36   19   35 1
  37   19   36 1
  38   20   26 2
  39   21   37 1
  40   21   38 1
  41   21   39 1
  42   22   40 1
  43   22   41 1
  44   22   42 1
  45   24   43 1
  46   24   44 1
  47   24   45 1

#	End of record

