#	Name: ASD01941032
#	Creating user name:	WinNT
#	Creation time:	15. 06. 2019 20:13

#	Modifying user name:	WinNT
#	Modification time:	15. 06. 2019 20:13

#	Program:	/corina/corina34_cracker 3.40 0067  02.08.2006

@<TRIPOS>MOLECULE
ASD01941032
  53   57    0    0    0
SMALL
NO_CHARGES


@<TRIPOS>ATOM
   1 N1             0.5917     0.9841     0.2018 N.am    
   2 C2             0.4803    -0.3527     0.2366 C.2     
   3 N3            -0.6838    -0.9947     0.0328 N.am    
   4 C4            -1.8393    -0.2837    -0.2271 C.2     
   5 C5            -1.7733     1.1346    -0.2745 C.2     
   6 C6            -0.4769     1.7748    -0.0390 C.2     
   7 C7            -3.0522    -0.9043    -0.4421 C.2     
   8 C8            -4.1830    -0.1225    -0.7005 C.2     
   9 N9            -4.1060     1.2191    -0.7424 N.am    
  10 C10           -2.9265     1.8682    -0.5344 C.2     
  11 C11           -0.7246    -2.3938     0.0838 C.ar    
  12 C12           -0.2759    -3.1428    -0.9959 C.ar    
  13 C13           -0.3175    -4.5223    -0.9425 C.ar    
  14 C14           -0.8055    -5.1577     0.1846 C.ar    
  15 C15           -1.2535    -4.4146     1.2613 C.ar    
  16 C16           -1.2087    -3.0349     1.2165 C.ar    
  17 O17           -5.2582    -0.6679    -0.8917 O.2     
  18 N18           -2.8760     3.2340    -0.5821 N.pl3   
  19 C19           -2.5362     3.8805    -1.7762 C.ar    
  20 C20           -2.1502     3.1382    -2.8836 C.ar    
  21 C21           -1.8153     3.7789    -4.0611 C.ar    
  22 C22           -1.8636     5.1588    -4.1381 C.ar    
  23 C23           -2.2478     5.9032    -3.0368 C.ar    
  24 C24           -2.5902     5.2682    -1.8574 C.ar    
  25 O25            1.4758    -1.0127     0.4621 O.2     
  26 C26            1.9001     1.6000     0.4359 C.3     
  27 O27           -0.3639     2.9861    -0.0679 O.2     
  28 C28            3.0118     1.3019    -0.5721 C.3     
  29 C29            2.3560     2.6839    -0.5429 C.3     
  30 C30           -5.3155     1.9989    -1.0168 C.3     
  31 I31           -1.3533     6.1244    -5.9259 I       
  32 C32           -3.1577    -2.4069    -0.3995 C.3     
  33 F33           -2.9654     5.9948    -0.7820 F       
  34 H34            0.1050    -2.6472    -1.8766 H       
  35 H35            0.0310    -5.1054    -1.7821 H       
  36 H36           -0.8370    -6.2365     0.2239 H       
  37 H37           -1.6347    -4.9137     2.1399 H       
  38 H38           -1.5584    -2.4550     2.0578 H       
  39 H39           -3.0756     3.7547     0.2115 H       
  40 H40           -2.1113     2.0605    -2.8248 H       
  41 H41           -1.5149     3.2010    -4.9227 H       
  42 H42           -2.2846     6.9808    -3.1000 H       
  43 H43            2.1860     1.7133     1.4817 H       
  44 H44            4.0292     1.2194    -0.1896 H       
  45 H45            2.7697     0.6475    -1.4095 H       
  46 H46            1.6825     2.9387    -1.3612 H       
  47 H47            2.9419     3.5107    -0.1413 H       
  48 H48           -6.1750     1.3306    -1.0673 H       
  49 H49           -5.4673     2.7266    -0.2196 H       
  50 H50           -5.2039     2.5198    -1.9678 H       
  51 H51           -3.2718    -2.7340     0.6340 H       
  52 H52           -4.0233    -2.7269    -0.9796 H       
  53 H53           -2.2544    -2.8467    -0.8222 H       
@<TRIPOS>BOND
   1    1    2 am
   2    1   26 1
   3    1    6 am
   4    2    3 am
   5    2   25 2
   6    3    4 1
   7    3   11 1
   8    4    5 1
   9    4    7 2
  10    5    6 1
  11    5   10 2
  12    6   27 2
  13    7    8 1
  14    7   32 1
  15    8    9 am
  16    8   17 2
  17    9   10 1
  18    9   30 1
  19   10   18 1
  20   11   12 ar
  21   11   16 ar
  22   12   13 ar
  23   12   34 1
  24   13   14 ar
  25   13   35 1
  26   14   15 ar
  27   14   36 1
  28   15   16 ar
  29   15   37 1
  30   16   38 1
  31   18   19 1
  32   18   39 1
  33   19   20 ar
  34   19   24 ar
  35   20   21 ar
  36   20   40 1
  37   21   22 ar
  38   21   41 1
  39   22   23 ar
  40   22   31 1
  41   23   24 ar
  42   23   42 1
  43   24   33 1
  44   26   28 1
  45   26   29 1
  46   26   43 1
  47   28   29 1
  48   28   44 1
  49   28   45 1
  50   29   46 1
  51   29   47 1
  52   30   48 1
  53   30   49 1
  54   30   50 1
  55   32   51 1
  56   32   52 1
  57   32   53 1

#	End of record

