#	Name: ASD02560501
#	Creating user name:	WinNT
#	Creation time:	15. 06. 2019 20:25

#	Modifying user name:	WinNT
#	Modification time:	15. 06. 2019 20:25

#	Program:	/corina/corina34_cracker 3.40 0067  02.08.2006

@<TRIPOS>MOLECULE
ASD02560501
  43   46    0    0    0
SMALL
NO_CHARGES


@<TRIPOS>ATOM
   1 C1            -0.1120     0.9181    -1.0693 C.2     
   2 C2            -0.2414    -0.4821    -1.0957 C.2     
   3 C3            -1.4200    -1.0630    -0.7947 C.2     
   4 N4            -2.5070    -0.3011    -0.4595 N.pl3   
   5 C5            -2.4105     1.0714    -0.4252 C.2     
   6 C6            -1.1797     1.6892    -0.7331 C.2     
   7 C7            -3.7901    -0.6275    -0.1177 C.2     
   8 C8            -4.4538     0.5579     0.1193 C.2     
   9 N9            -3.5862     1.5677    -0.0767 N.2     
  10 C10           -5.8738     0.6957     0.5192 C.ar    
  11 N11           -4.3252    -1.9128    -0.0268 N.3     
  12 C12           -3.2773    -2.9312    -0.1781 C.3     
  13 C13           -6.8635    -0.0175    -0.1559 C.ar    
  14 C14           -3.7196    -4.2457     0.4884 C.3     
  15 C15           -8.1846     0.1149     0.2210 C.ar    
  16 C16           -8.5284     0.9533     1.2661 C.ar    
  17 C17           -7.5515     1.6641     1.9406 C.ar    
  18 C18           -6.2257     1.5355     1.5771 C.ar    
  19 Cl19          -5.0009     2.4278     2.4241 Cl      
  20 C20           -3.7544    -5.3139    -0.6240 C.3     
  21 C21           -2.7847    -4.7706    -1.7028 C.3     
  22 C22           -3.0588    -3.2465    -1.6723 C.3     
  23 C23            1.2083     1.5613    -1.4069 C.3     
  24 H24            0.6079    -1.0952    -1.3587 H       
  25 H25           -1.5077    -2.1392    -0.8186 H       
  26 H26           -1.0891     2.7651    -0.7100 H       
  27 H27           -4.8260    -2.0354     0.8405 H       
  28 H28           -2.3479    -2.5797     0.2699 H       
  29 H29           -6.5969    -0.6720    -0.9726 H       
  30 H30           -3.0044    -4.5325     1.2593 H       
  31 H31           -4.7118    -4.1280     0.9242 H       
  32 H32           -8.9518    -0.4372    -0.3014 H       
  33 H33           -9.5637     1.0538     1.5567 H       
  34 H34           -7.8261     2.3171     2.7558 H       
  35 H35           -3.4029    -6.2728    -0.2432 H       
  36 H36           -4.7616    -5.4095    -1.0298 H       
  37 H37           -1.7499    -4.9825    -1.4339 H       
  38 H38           -3.0235    -5.1866    -2.6816 H       
  39 H39           -3.9536    -3.0082    -2.2473 H       
  40 H40           -2.1996    -2.6967    -2.0565 H       
  41 H41            1.9392     0.7882    -1.6439 H       
  42 H42            1.0828     2.2187    -2.2673 H       
  43 H43            1.5580     2.1425    -0.5536 H       
@<TRIPOS>BOND
   1    1    2 1
   2    1   23 1
   3    1    6 2
   4    2    3 2
   5    2   24 1
   6    3    4 1
   7    3   25 1
   8    4    5 1
   9    4    7 1
  10    5    6 1
  11    5    9 2
  12    6   26 1
  13    7    8 2
  14    7   11 1
  15    8    9 1
  16    8   10 1
  17   10   13 ar
  18   10   18 ar
  19   11   12 1
  20   11   27 1
  21   12   14 1
  22   12   22 1
  23   12   28 1
  24   13   15 ar
  25   13   29 1
  26   14   20 1
  27   14   30 1
  28   14   31 1
  29   15   16 ar
  30   15   32 1
  31   16   17 ar
  32   16   33 1
  33   17   18 ar
  34   17   34 1
  35   18   19 1
  36   20   21 1
  37   20   35 1
  38   20   36 1
  39   21   22 1
  40   21   37 1
  41   21   38 1
  42   22   39 1
  43   22   40 1
  44   23   41 1
  45   23   42 1
  46   23   43 1

#	End of record

