#	Name: ASD01881520
#	Creating user name:	WinNT
#	Creation time:	15. 06. 2019 19:42

#	Modifying user name:	WinNT
#	Modification time:	15. 06. 2019 19:42

#	Program:	/corina/corina34_cracker 3.40 0067  02.08.2006

@<TRIPOS>MOLECULE
ASD01881520
  47   49    0    0    0
SMALL
NO_CHARGES


@<TRIPOS>ATOM
   1 C1            -0.0168     1.3899     0.0097 C.ar    
   2 C2             0.0021    -0.0041     0.0020 C.ar    
   3 C3             1.2074    -0.6749    -0.0131 C.ar    
   4 C4             2.3964     0.0333    -0.0202 C.ar    
   5 C5             2.3835     1.4167    -0.0122 C.ar    
   6 C6             1.1835     2.0980     0.0020 C.ar    
   7 C7             1.2295    -2.1817    -0.0214 C.3     
   8 O8             1.2236    -2.6508    -1.3712 O.3     
   9 N9             1.2936    -8.0319    -2.3920 N.pl3   
  10 N10            1.2781    -7.9241    -3.7906 N.2     
  11 N11            1.2561    -6.6819    -4.1239 N.2     
  12 C12            1.2553    -5.9017    -3.0247 C.ar    
  13 C13            1.2792    -6.7462    -1.9013 C.ar    
  14 C14            1.2371    -4.5128    -2.8366 C.ar    
  15 C15            1.2417    -3.9978    -1.5568 C.ar    
  16 C16            1.2651    -4.8474    -0.4534 C.ar    
  17 C17            1.2844    -6.2034    -0.6214 C.ar    
  18 C18            1.3145    -9.2695    -1.6082 C.3     
  19 C19            2.7641    -9.6849    -1.3497 C.3     
  20 C20            3.4814    -8.5780    -0.5743 C.3     
  21 C21            2.7860   -10.9773    -0.5311 C.3     
  22 C22            3.4747    -9.9149    -2.6850 C.3     
  23 Br23           1.2055    -3.3516    -4.3287 Br      
  24 B24           -1.3854     2.1592     0.0203 Du      
  25 O25           -2.6069     1.4351     0.0222 O.3     
  26 O26           -1.4016     3.5791     0.0281 O.3     
  27 H27           -0.9252    -0.5577     0.0083 H       
  28 H28            3.3378    -0.4959    -0.0317 H       
  29 H29            3.3143     1.9644    -0.0170 H       
  30 H30            1.1746     3.1780     0.0076 H       
  31 H31            2.1296    -2.5347     0.4820 H       
  32 H32            0.3499    -2.5609     0.4988 H       
  33 H33            1.2687    -4.4311     0.5431 H       
  34 H34            1.3027    -6.8538     0.2407 H       
  35 H35            0.8083    -9.1056    -0.6569 H       
  36 H36            0.8035   -10.0581    -2.1606 H       
  37 H37            2.9752    -8.4141     0.3770 H       
  38 H38            4.5141    -8.8740    -0.3901 H       
  39 H39            3.4658    -7.6572    -1.1575 H       
  40 H40            2.2750   -11.7659    -1.0834 H       
  41 H41            3.8187   -11.2733    -0.3469 H       
  42 H42            2.2798   -10.8135     0.4202 H       
  43 H43            3.4591    -8.9942    -3.2682 H       
  44 H44            4.5074   -10.2109    -2.5008 H       
  45 H45            2.9637   -10.7035    -3.2374 H       
  46 H46           -3.3957     1.9945     0.0290 H       
  47 H47           -2.2895     3.9622     0.0344 H       
@<TRIPOS>BOND
   1    1    2 ar
   2    1    6 ar
   3    1   24 1
   4    2    3 ar
   5    2   27 1
   6    3    4 ar
   7    3    7 1
   8    4    5 ar
   9    4   28 1
  10    5    6 ar
  11    5   29 1
  12    6   30 1
  13    7    8 1
  14    7   31 1
  15    7   32 1
  16    8   15 1
  17    9   10 1
  18    9   13 1
  19    9   18 1
  20   10   11 2
  21   11   12 1
  22   12   13 ar
  23   12   14 ar
  24   13   17 ar
  25   14   15 ar
  26   14   23 1
  27   15   16 ar
  28   16   17 ar
  29   16   33 1
  30   17   34 1
  31   18   19 1
  32   18   35 1
  33   18   36 1
  34   19   20 1
  35   19   21 1
  36   19   22 1
  37   20   37 1
  38   20   38 1
  39   20   39 1
  40   21   40 1
  41   21   41 1
  42   21   42 1
  43   22   43 1
  44   22   44 1
  45   22   45 1
  46   24   25 1
  47   24   26 1
  48   25   46 1
  49   26   47 1

#	End of record

