#	Name: ASD01840543
#	Creating user name:	WinNT
#	Creation time:	15. 06. 2019 19:37

#	Modifying user name:	WinNT
#	Modification time:	15. 06. 2019 19:37

#	Program:	/corina/corina34_cracker 3.40 0067  02.08.2006

@<TRIPOS>MOLECULE
ASD01840543
  54   59    0    0    0
SMALL
NO_CHARGES


@<TRIPOS>ATOM
   1 C1            -0.8617     1.6422    -0.0205 C.3     
   2 C2            -0.3576     0.2242    -0.0983 C.ar    
   3 C3            -0.4530    -0.4788    -1.2692 C.ar    
   4 C4             0.0288    -1.7956    -1.2982 C.ar    
   5 C5             0.0830    -2.8116    -2.3608 C.2     
   6 O6            -0.3228    -2.6522    -3.4959 O.2     
   7 N7             0.6454    -3.9413    -1.8976 N.am    
   8 C8             1.0029    -3.7459    -0.4880 C.3     
   9 C9             0.5852    -2.3382    -0.1377 C.ar    
  10 N10            0.6588    -1.6298     0.9667 N.ar    
  11 C11            0.2149    -0.3804     1.0197 C.ar    
  12 N12            0.3175     0.3310     2.2031 N.3     
  13 C13            1.6033     1.0313     2.2855 C.3     
  14 C14            1.6600     1.8074     3.6064 C.3     
  15 C15            1.8699     0.8065     4.7452 C.3     
  16 O16            1.7677     1.4850     5.9987 O.3     
  17 C17            2.8917     2.0882     6.4673 C.ar    
  18 C18            2.8979     2.6659     7.7284 C.ar    
  19 C19            4.0418     3.2789     8.1973 C.ar    
  20 C20            5.1856     3.3215     7.4148 C.ar    
  21 C21            6.4089     4.0118     7.9600 C.3     
  22 O22            7.5620     3.6453     7.2032 O.3     
  23 C23            7.3897     3.8226     5.7926 C.3     
  24 C24            6.4101     2.7623     5.2867 C.3     
  25 C25            5.1827     2.7435     6.1617 C.ar    
  26 C26            4.0382     2.1237     5.6891 C.ar    
  27 C27            0.8117    -0.2875     4.6738 C.3     
  28 C28           -0.6569     0.0974     4.5448 C.3     
  29 C29            0.0856    -0.5378     3.3597 C.3     
  30 H30           -0.0363     2.3315    -0.1984 H       
  31 H31           -1.6325     1.7958    -0.7758 H       
  32 H32           -1.2809     1.8250     0.9689 H       
  33 H33           -0.8893    -0.0302    -2.1494 H       
  34 H34            0.7906    -4.7518    -2.4104 H       
  35 H35            0.4684    -4.4617     0.1366 H       
  36 H36            2.0785    -3.8617    -0.3549 H       
  37 H37            2.4168     0.3065     2.2525 H       
  38 H38            1.6956     1.7252     1.4500 H       
  39 H39            2.4892     2.5144     3.5815 H       
  40 H40            0.7235     2.3442     3.7574 H       
  41 H41            2.8594     0.3582     4.6557 H       
  42 H42            2.0094     2.6362     8.3417 H       
  43 H43            4.0461     3.7285     9.1793 H       
  44 H44            6.2690     5.0913     7.9047 H       
  45 H45            6.5532     3.7218     9.0008 H       
  46 H46            6.9880     4.8164     5.5948 H       
  47 H47            8.3491     3.7051     5.2888 H       
  48 H48            6.1212     2.9953     4.2619 H       
  49 H49            6.8895     1.7837     5.3136 H       
  50 H50            4.0375     1.6702     4.7090 H       
  51 H51            1.0196    -1.1658     5.2849 H       
  52 H52           -1.3871    -0.5181     5.0703 H       
  53 H53           -0.8957     1.1589     4.4792 H       
  54 H54           -0.1779    -1.5689     3.1241 H       
@<TRIPOS>BOND
   1    1    2 1
   2    1   30 1
   3    1   31 1
   4    1   32 1
   5    2   11 ar
   6    2    3 ar
   7    3    4 ar
   8    3   33 1
   9    4    9 ar
  10    4    5 1
  11    5    6 2
  12    5    7 am
  13    7    8 1
  14    7   34 1
  15    8    9 1
  16    8   35 1
  17    8   36 1
  18    9   10 ar
  19   10   11 ar
  20   11   12 1
  21   12   29 1
  22   12   13 1
  23   13   14 1
  24   13   37 1
  25   13   38 1
  26   14   15 1
  27   14   39 1
  28   14   40 1
  29   15   16 1
  30   15   27 1
  31   15   41 1
  32   16   17 1
  33   17   26 ar
  34   17   18 ar
  35   18   19 ar
  36   18   42 1
  37   19   20 ar
  38   19   43 1
  39   20   25 ar
  40   20   21 1
  41   21   22 1
  42   21   44 1
  43   21   45 1
  44   22   23 1
  45   23   24 1
  46   23   46 1
  47   23   47 1
  48   24   25 1
  49   24   48 1
  50   24   49 1
  51   25   26 ar
  52   26   50 1
  53   27   29 1
  54   27   28 1
  55   27   51 1
  56   28   29 1
  57   28   52 1
  58   28   53 1
  59   29   54 1

#	End of record

