#	Name: ASD02560535
#	Creating user name:	WinNT
#	Creation time:	15. 06. 2019 20:25

#	Modifying user name:	WinNT
#	Modification time:	15. 06. 2019 20:25

#	Program:	/corina/corina34_cracker 3.40 0067  02.08.2006

@<TRIPOS>MOLECULE
ASD02560535
  55   58    0    0    0
SMALL
NO_CHARGES


@<TRIPOS>ATOM
   1 N1            -0.0190     1.2805     0.0819 N.2     
   2 N2            -0.0010    -0.0042     0.0570 N.2     
   3 C3             1.1972     1.7472     0.0504 C.2     
   4 N4             2.0447     0.6722     0.0020 N.pl3   
   5 C5             1.2389    -0.4332     0.0078 C.2     
   6 S6             1.7652    -2.1141    -0.0415 S.3     
   7 C7             0.1590    -2.9476    -0.0040 C.3     
   8 C8             0.3664    -4.4398    -0.0391 C.2     
   9 O9             1.4896    -4.8950    -0.0850 O.2     
  10 N10           -0.6963    -5.2685    -0.0196 N.am    
  11 C11            3.4461     0.6992    -0.0440 C.ar    
  12 C12            4.1740     0.6898     1.1350 C.ar    
  13 C13            5.5541     0.7159     1.0874 C.ar    
  14 C14            6.1986     0.7544    -0.1323 C.ar    
  15 C15            5.4734     0.7676    -1.3172 C.ar    
  16 C16            4.0986     0.7297    -1.2759 C.ar    
  17 C17            6.2441     0.8259    -2.6102 C.3     
  18 C18            5.3612     0.4006    -3.7817 C.3     
  19 C19            4.0586     1.2070    -3.7242 C.3     
  20 C20            3.2495     0.7241    -2.5199 C.3     
  21 C21           -0.5087    -6.6457    -0.1340 C.ar    
  22 C22           -1.5271    -7.4453    -0.6469 C.ar    
  23 C23           -1.3447    -8.8056    -0.7616 C.ar    
  24 C24           -0.1353    -9.3829    -0.3623 C.ar    
  25 C25            0.8842    -8.5767     0.1520 C.ar    
  26 C26            0.6971    -7.2168     0.2589 C.ar    
  27 C27            0.0639   -10.8391    -0.4829 C.2     
  28 O28           -0.8234   -11.5386    -0.9297 O.2     
  29 O29            1.2299   -11.3938    -0.0977 O.3     
  30 Cl30          -3.0281    -6.7269    -1.1416 Cl      
  31 C31            7.7046     0.7830    -0.1794 C.3     
  32 C32            1.5972     3.2001     0.0646 C.3     
  33 F33            0.6424     3.9398     0.7707 F       
  34 F34            2.8437     3.3346     0.6853 F       
  35 H35           -0.3702    -2.6757     0.9093 H       
  36 H36           -0.4292    -2.6420    -0.8694 H       
  37 H37           -1.5915    -4.9071     0.0741 H       
  38 H38            3.6645     0.6624     2.0869 H       
  39 H39            6.1275     0.7066     2.0026 H       
  40 H40            6.5931     1.8453    -2.7749 H       
  41 H41            7.1033     0.1583    -2.5469 H       
  42 H42            5.8761     0.6015    -4.7211 H       
  43 H43            5.1377    -0.6636    -3.7053 H       
  44 H44            4.2876     2.2672    -3.6161 H       
  45 H45            3.4865     1.0459    -4.6379 H       
  46 H46            2.8921    -0.2881    -2.7096 H       
  47 H47            2.3951     1.3847    -2.3727 H       
  48 H48           -2.1347    -9.4256    -1.1590 H       
  49 H49            1.8193    -9.0197     0.4616 H       
  50 H50            1.4847    -6.5937     0.6562 H       
  51 H51            1.3137   -12.3522    -0.1958 H       
  52 H52            8.0865    -0.2373    -0.2133 H       
  53 H53            8.0302     1.3225    -1.0689 H       
  54 H54            8.0865     1.2846     0.7098 H       
  55 H55            1.6591     3.5700    -0.9588 H       
@<TRIPOS>BOND
   1    1    2 1
   2    1    3 2
   3    2    5 2
   4    3    4 1
   5    3   32 1
   6    4    5 1
   7    4   11 1
   8    5    6 1
   9    6    7 1
  10    7    8 1
  11    7   35 1
  12    7   36 1
  13    8    9 2
  14    8   10 am
  15   10   21 1
  16   10   37 1
  17   11   12 ar
  18   11   16 ar
  19   12   13 ar
  20   12   38 1
  21   13   14 ar
  22   13   39 1
  23   14   15 ar
  24   14   31 1
  25   15   16 ar
  26   15   17 1
  27   16   20 1
  28   17   18 1
  29   17   40 1
  30   17   41 1
  31   18   19 1
  32   18   42 1
  33   18   43 1
  34   19   20 1
  35   19   44 1
  36   19   45 1
  37   20   46 1
  38   20   47 1
  39   21   22 ar
  40   21   26 ar
  41   22   23 ar
  42   22   30 1
  43   23   24 ar
  44   23   48 1
  45   24   25 ar
  46   24   27 1
  47   25   26 ar
  48   25   49 1
  49   26   50 1
  50   27   28 2
  51   27   29 1
  52   29   51 1
  53   31   52 1
  54   31   53 1
  55   31   54 1
  56   32   33 1
  57   32   34 1
  58   32   55 1

#	End of record

