#	Name: ASD01885036
#	Creating user name:	WinNT
#	Creation time:	15. 06. 2019 19:49

#	Modifying user name:	WinNT
#	Modification time:	15. 06. 2019 19:49

#	Program:	/corina/corina34_cracker 3.40 0067  02.08.2006

@<TRIPOS>MOLECULE
ASD01885036
  56   60    0    0    0
SMALL
NO_CHARGES


@<TRIPOS>ATOM
   1 F1             0.0277    -0.0080    -0.4094 F       
   2 C2             0.0118     1.3425    -0.4428 C.ar    
   3 C3            -1.1825     2.0162    -0.6220 C.ar    
   4 C4            -1.1995     3.3985    -0.6563 C.ar    
   5 C5            -0.0217     4.1111    -0.5109 C.ar    
   6 F6            -0.0412     5.4616    -0.5443 F       
   7 C7             1.1761     3.4410    -0.3309 C.ar    
   8 C8             2.4581     4.2172    -0.1727 C.3     
   9 C9             2.6964     5.0681    -1.4222 C.3     
  10 C10            4.0176     5.8290    -1.2726 C.3     
  11 N11            3.9831     6.5944    -0.0189 N.pl3   
  12 C12            3.6728     5.8882     1.2316 C.3     
  13 C13            2.3555     5.1266     1.0539 C.3     
  14 C14            4.2403     7.9633    -0.0159 C.2     
  15 C15            3.3768     8.8498    -0.6949 C.2     
  16 C16            3.6243    10.1743    -0.6929 C.2     
  17 N17            4.7099    10.6776    -0.0371 N.pl3   
  18 C18            5.2040    11.9372     0.1344 C.2     
  19 C19            4.6107    13.2095    -0.4137 C.3     
  20 C20            3.6192    13.7872     0.5983 C.3     
  21 C21            3.9449    15.1531     1.2058 C.3     
  22 C22            2.8193    15.0218     0.1779 C.3     
  23 N23            6.2861    11.8393     0.8610 N.2     
  24 N24            6.5131    10.6092     1.1620 N.2     
  25 C25            5.5706     9.8432     0.6338 C.2     
  26 C26            5.3290     8.4583     0.6504 C.2     
  27 Cl27           6.4015     7.3889     1.4988 Cl      
  28 C28            1.1947     2.0557    -0.2914 C.ar    
  29 O29            2.3691     1.3955    -0.1096 O.3     
  30 C30            3.1084     1.0514    -1.2831 C.3     
  31 C31            4.3906     0.3194    -0.8818 C.3     
  32 F32            4.0624    -0.9003    -0.2803 F       
  33 H33           -2.1026     1.4622    -0.7356 H       
  34 H34           -2.1331     3.9229    -0.7970 H       
  35 H35            3.2888     3.5236    -0.0420 H       
  36 H36            2.7461     4.4217    -2.2985 H       
  37 H37            1.8785     5.7789    -1.5398 H       
  38 H38            4.8460     5.1211    -1.2459 H       
  39 H39            4.1438     6.5108    -2.1136 H       
  40 H40            4.4731     5.1851     1.4625 H       
  41 H41            3.5715     6.6091     2.0429 H       
  42 H42            1.5408     5.8369     0.9130 H       
  43 H43            2.1625     4.5219     1.9400 H       
  44 H44            2.5143     8.4647    -1.2186 H       
  45 H45            2.9573    10.8439    -1.2156 H       
  46 H46            5.4060    13.9321    -0.5962 H       
  47 H47            4.0926    12.9955    -1.3485 H       
  48 H48            3.1207    13.0579     1.2369 H       
  49 H49            3.6608    15.3227     2.2444 H       
  50 H50            4.8656    15.6402     0.8845 H       
  51 H51            2.9994    15.4225    -0.8196 H       
  52 H52            1.7946    15.1050     0.5402 H       
  53 H53            2.5031     0.4032    -1.9168 H       
  54 H54            3.3641     1.9587    -1.8304 H       
  55 H55            4.9968     0.1356    -1.7688 H       
  56 H56            4.9535     0.9320    -0.1776 H       
@<TRIPOS>BOND
   1    1    2 1
   2    2   28 ar
   3    2    3 ar
   4    3    4 ar
   5    3   33 1
   6    4    5 ar
   7    4   34 1
   8    5    6 1
   9    5    7 ar
  10    7    8 1
  11    7   28 ar
  12    8   13 1
  13    8    9 1
  14    8   35 1
  15    9   10 1
  16    9   36 1
  17    9   37 1
  18   10   11 1
  19   10   38 1
  20   10   39 1
  21   11   12 1
  22   11   14 1
  23   12   13 1
  24   12   40 1
  25   12   41 1
  26   13   42 1
  27   13   43 1
  28   14   26 2
  29   14   15 1
  30   15   16 2
  31   15   44 1
  32   16   17 1
  33   16   45 1
  34   17   25 1
  35   17   18 1
  36   18   19 1
  37   18   23 2
  38   19   20 1
  39   19   46 1
  40   19   47 1
  41   20   22 1
  42   20   21 1
  43   20   48 1
  44   21   22 1
  45   21   49 1
  46   21   50 1
  47   22   51 1
  48   22   52 1
  49   23   24 1
  50   24   25 2
  51   25   26 1
  52   26   27 1
  53   28   29 1
  54   29   30 1
  55   30   31 1
  56   30   53 1
  57   30   54 1
  58   31   32 1
  59   31   55 1
  60   31   56 1

#	End of record

