#	Name: ASD01813592
#	Creating user name:	WinNT
#	Creation time:	15. 06. 2019 19:30

#	Modifying user name:	WinNT
#	Modification time:	15. 06. 2019 19:30

#	Program:	/corina/corina34_cracker 3.40 0067  02.08.2006

@<TRIPOS>MOLECULE
ASD01813592
  47   51    0    0    0
SMALL
NO_CHARGES


@<TRIPOS>ATOM
   1 C1             6.8954     1.6497    -0.3549 C.ar    
   2 C2             6.9796     0.2659    -0.3690 C.ar    
   3 C3             5.8443    -0.5111    -0.2594 C.ar    
   4 C4             4.5954     0.0941    -0.1323 C.ar    
   5 C5             4.5116     1.4968    -0.1176 C.ar    
   6 C6             5.6691     2.2712    -0.2299 C.ar    
   7 N7             3.4538    -0.6718    -0.0231 N.pl3   
   8 C8             2.2317    -0.1386     0.1001 C.2     
   9 C9             2.0240     1.2257     0.1264 C.2     
  10 C10            3.1850     2.1242     0.0174 C.2     
  11 O11            3.0544     3.3357     0.0360 O.2     
  12 C12            0.6666     1.7722     0.2620 C.2     
  13 O13            0.4765     3.1066     0.2865 O.3     
  14 O14           -0.2849     1.0209     0.3521 O.2     
  15 C15            3.5835    -2.1309    -0.0431 C.3     
  16 C16            3.4402    -2.6286    -1.4583 C.ar    
  17 N17            2.2378    -2.8255    -1.9591 N.ar    
  18 C18            2.0642    -3.2630    -3.2006 C.ar    
  19 C19            3.1622    -3.5294    -4.0175 C.ar    
  20 C20            4.4368    -3.3311    -3.5163 C.ar    
  21 C21            4.5726    -2.8670    -2.2154 C.ar    
  22 F22            5.9437    -1.8584    -0.2759 F       
  23 F23            5.5888     3.6197    -0.2153 F       
  24 C24            0.6935    -3.4700    -3.7217 C.ar    
  25 C25           -0.4190    -3.3103    -2.8759 C.ar    
  26 C26           -1.7161    -3.5093    -3.3806 C.ar    
  27 C27           -1.8851    -3.8624    -4.7152 C.ar    
  28 C28           -0.7877    -4.0163    -5.5364 C.ar    
  29 C29            0.4943    -3.8183    -5.0520 C.ar    
  30 C30           -0.5815    -2.9549    -1.4671 C.2     
  31 C31           -1.9007    -2.9583    -1.2106 C.2     
  32 N32           -2.5938    -3.2873    -2.3424 N.pl3   
  33 H33            7.7934     2.2439    -0.4375 H       
  34 H34            7.9444    -0.2093    -0.4673 H       
  35 H35            1.3802    -0.7980     0.1811 H       
  36 H36           -0.4342     3.4187     0.3772 H       
  37 H37            4.5623    -2.4140     0.3442 H       
  38 H38            2.8050    -2.5735     0.5783 H       
  39 H39            3.0201    -3.8859    -5.0270 H       
  40 H40            5.3065    -3.5292    -4.1253 H       
  41 H41            5.5537    -2.7018    -1.7953 H       
  42 H42           -2.8786    -4.0168    -5.1097 H       
  43 H43           -0.9303    -4.2911    -6.5710 H       
  44 H44            1.3427    -3.9430    -5.7085 H       
  45 H45            0.2088    -2.7319    -0.7655 H       
  46 H46           -2.3470    -2.7341    -0.2530 H       
  47 H47           -3.5595    -3.3545    -2.4049 H       
@<TRIPOS>BOND
   1    1    2 ar
   2    1    6 ar
   3    1   33 1
   4    2    3 ar
   5    2   34 1
   6    3    4 ar
   7    3   22 1
   8    4    5 ar
   9    4    7 1
  10    5    6 ar
  11    5   10 1
  12    6   23 1
  13    7    8 1
  14    7   15 1
  15    8    9 2
  16    8   35 1
  17    9   10 1
  18    9   12 1
  19   10   11 2
  20   12   13 1
  21   12   14 2
  22   13   36 1
  23   15   16 1
  24   15   37 1
  25   15   38 1
  26   16   17 ar
  27   16   21 ar
  28   17   18 ar
  29   18   19 ar
  30   18   24 1
  31   19   20 ar
  32   19   39 1
  33   20   21 ar
  34   20   40 1
  35   21   41 1
  36   24   25 ar
  37   24   29 ar
  38   25   26 ar
  39   25   30 1
  40   26   27 ar
  41   26   32 1
  42   27   28 ar
  43   27   42 1
  44   28   29 ar
  45   28   43 1
  46   29   44 1
  47   30   31 2
  48   30   45 1
  49   31   32 1
  50   31   46 1
  51   32   47 1

#	End of record

