#	Name: ASD02560001
#	Creating user name:	WinNT
#	Creation time:	15. 06. 2019 20:24

#	Modifying user name:	WinNT
#	Modification time:	15. 06. 2019 20:24

#	Program:	/corina/corina34_cracker 3.40 0067  02.08.2006

@<TRIPOS>MOLECULE
ASD02560001
  37   38    0    0    0
SMALL
NO_CHARGES


@<TRIPOS>ATOM
   1 N1             0.2729     1.3796     0.1850 N.am    
   2 C2             0.1260     0.0471     0.0714 C.2     
   3 N3             1.1900    -0.7532    -0.1244 N.am    
   4 C4             2.4543    -0.2193    -0.2124 C.2     
   5 C5             2.6208     1.1339    -0.0990 C.2     
   6 C6             1.4937     1.9444     0.1049 C.2     
   7 O7             1.6181     3.1529     0.2084 O.2     
   8 C8             3.9952     1.7452    -0.1911 C.3     
   9 O9            -0.9848    -0.4415     0.1472 O.2     
  10 S10            3.8468    -1.2682    -0.4682 S.3     
  11 C11            3.9072    -2.0828     1.0930 C.ar    
  12 C12            4.8051    -3.1221     1.3017 C.ar    
  13 C13            4.8501    -3.7581     2.5267 C.ar    
  14 C14            4.0024    -3.3617     3.5449 C.ar    
  15 C15            3.1073    -2.3274     3.3405 C.ar    
  16 C16            3.0610    -1.6833     2.1199 C.ar    
  17 C17            1.0006    -2.2010    -0.2440 C.3     
  18 O18            0.4743    -2.5073    -1.5368 O.3     
  19 C19            1.4483    -2.4804    -2.5821 C.3     
  20 C20            0.7767    -2.8214    -3.9139 C.3     
  21 O21           -0.1648    -1.7996    -4.2480 O.3     
  22 H22           -0.5075     1.9392     0.3218 H       
  23 H23            4.2143     1.9916    -1.2300 H       
  24 H24            4.0307     2.6520     0.4127 H       
  25 H25            4.7346     1.0341     0.1774 H       
  26 H26            5.4669    -3.4326     0.5067 H       
  27 H27            5.5479    -4.5661     2.6896 H       
  28 H28            4.0391    -3.8612     4.5017 H       
  29 H29            2.4464    -2.0206     4.1377 H       
  30 H30            2.3617    -0.8758     1.9609 H       
  31 H31            1.9582    -2.7048    -0.1129 H       
  32 H32            0.3034    -2.5407     0.5219 H       
  33 H33            1.8896    -1.4856    -2.6420 H       
  34 H34            2.2284    -3.2118    -2.3709 H       
  35 H35            1.5332    -2.8881    -4.6958 H       
  36 H36            0.2598    -3.7770    -3.8259 H       
  37 H37           -0.6295    -1.9505    -5.0825 H       
@<TRIPOS>BOND
   1    1    2 am
   2    1    6 am
   3    1   22 1
   4    2    3 am
   5    2    9 2
   6    3    4 1
   7    3   17 1
   8    4    5 2
   9    4   10 1
  10    5    6 1
  11    5    8 1
  12    6    7 2
  13    8   23 1
  14    8   24 1
  15    8   25 1
  16   10   11 1
  17   11   12 ar
  18   11   16 ar
  19   12   13 ar
  20   12   26 1
  21   13   14 ar
  22   13   27 1
  23   14   15 ar
  24   14   28 1
  25   15   16 ar
  26   15   29 1
  27   16   30 1
  28   17   18 1
  29   17   31 1
  30   17   32 1
  31   18   19 1
  32   19   20 1
  33   19   33 1
  34   19   34 1
  35   20   21 1
  36   20   35 1
  37   20   36 1
  38   21   37 1

#	End of record

