#	Name: ASD03912031
#	Creating user name:	WinNT
#	Creation time:	15. 06. 2019 20:47

#	Modifying user name:	WinNT
#	Modification time:	15. 06. 2019 20:47

#	Program:	/corina/corina34_cracker 3.40 0067  02.08.2006

@<TRIPOS>MOLECULE
ASD03912031
  71   73    0    0    0
SMALL
NO_CHARGES


@<TRIPOS>ATOM
   1 C1             2.3334    16.2887    -4.6449 C.ar    
   2 C2             2.8380    16.4501    -5.9222 C.ar    
   3 C3             3.2934    15.3544    -6.6324 C.ar    
   4 C4             3.2451    14.0949    -6.0678 C.ar    
   5 C5             2.7389    13.9295    -4.7852 C.ar    
   6 C6             2.2881    15.0327    -4.0723 C.ar    
   7 C7             1.8382    17.4855    -3.8745 C.3     
   8 C8             3.8425    15.5348    -8.0242 C.3     
   9 N9             2.6886    12.6548    -4.2103 N.am    
  10 C10            1.6700    12.3244    -3.3920 C.2     
  11 C11            1.5599    10.9207    -2.8548 C.3     
  12 O12            0.8419    13.1568    -3.0879 O.2     
  13 C13            0.3432    10.8147    -1.9720 C.ar    
  14 C14           -0.8755    10.4547    -2.5168 C.ar    
  15 C15           -1.9924    10.3568    -1.7097 C.ar    
  16 C16           -1.8904    10.6200    -0.3514 C.ar    
  17 C17           -0.6664    10.9810     0.1928 C.ar    
  18 C18            0.4486    11.0720    -0.6176 C.ar    
  19 O19           -2.9877    10.5248     0.4446 O.3     
  20 C20           -2.7958    10.7462     1.8433 C.3     
  21 C21           -1.8071     9.7502     2.3923 C.2     
  22 C22           -2.2903    12.1792     2.0856 C.3     
  23 C23           -3.3462    12.8756     2.9686 C.3     
  24 C24           -4.0688    11.7095     3.6878 C.3     
  25 C25           -4.1411    10.6206     2.5877 C.3     
  26 N26           -1.7918     8.4870     1.9228 N.am    
  27 O27           -1.0251    10.0854     3.2566 O.2     
  28 C28           -0.7620     7.5492     2.3770 C.3     
  29 C29           -1.1996     6.9099     3.6696 C.2     
  30 O30           -0.4084     6.0103     4.2750 O.3     
  31 O31           -2.2626     7.2072     4.1611 O.2     
  32 C32           -0.5554     6.4658     1.3166 C.3     
  33 C33           -0.0453     7.1073     0.0246 C.3     
  34 C34            1.3435     7.7027     0.2646 C.3     
  35 C35            0.0379     6.0455    -1.0738 C.3     
  36 H36            2.8762    17.4338    -6.3662 H       
  37 H37            3.6002    13.2395    -6.6233 H       
  38 H38            1.8942    14.9074    -3.0745 H       
  39 H39            0.7779    17.6353    -4.0780 H       
  40 H40            1.9831    17.3161    -2.8075 H       
  41 H41            2.3956    18.3708    -4.1808 H       
  42 H42            4.9158    15.7171    -7.9705 H       
  43 H43            3.6558    14.6336    -8.6081 H       
  44 H44            3.3531    16.3843    -8.5006 H       
  45 H45            3.3868    12.0090    -4.4008 H       
  46 H46            1.4688    10.2201    -3.6848 H       
  47 H47            2.4516    10.6828    -2.2747 H       
  48 H48           -0.9545    10.2502    -3.5743 H       
  49 H49           -2.9442    10.0759    -2.1358 H       
  50 H50           -0.5845    11.1864     1.2500 H       
  51 H51            1.4017    11.3530    -0.1944 H       
  52 H52           -1.3302    12.1543     2.6010 H       
  53 H53           -2.1913    12.7057     1.1363 H       
  54 H54           -2.8645    13.5313     3.6940 H       
  55 H55           -4.0483    13.4373     2.3525 H       
  56 H56           -3.4847    11.3596     4.5390 H       
  57 H57           -5.0688    12.0093     4.0012 H       
  58 H58           -4.9715    10.8178     1.9097 H       
  59 H59           -4.2397     9.6318     3.0356 H       
  60 H60           -2.4626     8.1987     1.2842 H       
  61 H61            0.1736     8.0856     2.5354 H       
  62 H62           -0.7318     5.6274     5.1020 H       
  63 H63            0.1752     5.7408     1.6753 H       
  64 H64           -1.5023     5.9618     1.1227 H       
  65 H65           -0.7306     7.8966    -0.2843 H       
  66 H66            2.0288     6.9134     0.5735 H       
  67 H67            1.7069     8.1598    -0.6558 H       
  68 H68            1.2842     8.4592     1.0472 H       
  69 H69            0.7875     5.3016    -0.8039 H       
  70 H70           -0.9320     5.5604    -1.1845 H       
  71 H71            0.3174     6.5179    -2.0155 H       
@<TRIPOS>BOND
   1    1    2 ar
   2    1    7 1
   3    1    6 ar
   4    2    3 ar
   5    2   36 1
   6    3    4 ar
   7    3    8 1
   8    4    5 ar
   9    4   37 1
  10    5    6 ar
  11    5    9 1
  12    6   38 1
  13    7   39 1
  14    7   40 1
  15    7   41 1
  16    8   42 1
  17    8   43 1
  18    8   44 1
  19    9   10 am
  20    9   45 1
  21   10   11 1
  22   10   12 2
  23   11   13 1
  24   11   46 1
  25   11   47 1
  26   13   14 ar
  27   13   18 ar
  28   14   15 ar
  29   14   48 1
  30   15   16 ar
  31   15   49 1
  32   16   17 ar
  33   16   19 1
  34   17   18 ar
  35   17   50 1
  36   18   51 1
  37   19   20 1
  38   20   21 1
  39   20   22 1
  40   20   25 1
  41   21   26 am
  42   21   27 2
  43   22   23 1
  44   22   52 1
  45   22   53 1
  46   23   24 1
  47   23   54 1
  48   23   55 1
  49   24   25 1
  50   24   56 1
  51   24   57 1
  52   25   58 1
  53   25   59 1
  54   26   28 1
  55   26   60 1
  56   28   29 1
  57   28   32 1
  58   28   61 1
  59   29   30 1
  60   29   31 2
  61   30   62 1
  62   32   33 1
  63   32   63 1
  64   32   64 1
  65   33   34 1
  66   33   35 1
  67   33   65 1
  68   34   66 1
  69   34   67 1
  70   34   68 1
  71   35   69 1
  72   35   70 1
  73   35   71 1

#	End of record

