#	Name: ASD01882120
#	Creating user name:	WinNT
#	Creation time:	15. 06. 2019 19:43

#	Modifying user name:	WinNT
#	Modification time:	15. 06. 2019 19:43

#	Program:	/corina/corina34_cracker 3.40 0067  02.08.2006

@<TRIPOS>MOLECULE
ASD01882120
  59   63    0    0    0
SMALL
NO_CHARGES


@<TRIPOS>ATOM
   1 C1            -0.8237    -0.0452     1.1321 C.2     
   2 C2             0.0021    -0.0041     0.0020 C.2     
   3 C3            -0.4076     0.7446    -1.1170 C.2     
   4 C4            -1.5742     1.4165    -1.1135 C.2     
   5 N5            -2.4097     1.4053    -0.0352 N.pl3   
   6 C6            -2.0877     0.6951     1.0923 C.2     
   7 C7            -3.6249     1.9989     0.2030 C.2     
   8 C8            -4.0020     1.6466     1.4486 C.2     
   9 N9            -3.0585     0.8551     1.9730 N.2     
  10 N10            1.2030    -0.6889    -0.0141 N.pl3   
  11 C11           -4.3926     2.8794    -0.7491 C.3     
  12 C12            1.2370    -2.1558     0.0877 C.3     
  13 C13            2.0969    -2.7033    -1.0563 C.3     
  14 N14            3.4117    -2.0485    -1.0331 N.3     
  15 C15            3.2915    -0.6035    -1.2687 C.3     
  16 C16            2.4801     0.0297    -0.1395 C.3     
  17 C17            4.2818    -2.6371    -1.9585 C.ar    
  18 C18            5.5793    -2.1607    -2.0919 C.ar    
  19 C19            3.8491    -3.7010    -2.7389 C.ar    
  20 C20            4.7074    -4.2816    -3.6518 C.ar    
  21 C21            6.0029    -3.8012    -3.7895 C.ar    
  22 C22            6.4375    -2.7412    -3.0048 C.ar    
  23 N23            6.8732    -4.3901    -4.7146 N.3     
  24 C24            8.1868    -3.7302    -4.6964 C.3     
  25 C25            6.2978    -4.3680    -6.0673 C.3     
  26 C26            7.2530    -5.0731    -7.0339 C.3     
  27 O27            8.5331    -4.4377    -6.9796 O.3     
  28 C28            9.1230    -4.4416    -5.6768 C.3     
  29 C29           -4.0747     4.3469    -0.4555 C.3     
  30 F30           -2.7030     4.5686    -0.6185 F       
  31 F31           -4.7874     5.1643    -1.3394 F       
  32 F32           -4.4430     4.6498     0.8597 F       
  33 C33           -0.4463    -0.7948     2.2924 C.1     
  34 N34           -0.1469    -1.3894     3.2129 N.1     
  35 H35            0.2241     0.7810    -1.9922 H       
  36 H36           -1.8567     1.9811    -1.9898 H       
  37 H37           -4.9147     1.9498     1.9400 H       
  38 H38           -4.1056     2.6434    -1.7738 H       
  39 H39           -5.4613     2.7067    -0.6221 H       
  40 H40            1.6717    -2.4464     1.0441 H       
  41 H41            0.2247    -2.5519     0.0069 H       
  42 H42            2.2241    -3.7788    -0.9331 H       
  43 H43            1.6068    -2.5013    -2.0087 H       
  44 H44            4.2850    -0.1561    -1.2996 H       
  45 H45            2.7847    -0.4307    -2.2181 H       
  46 H46            2.2910     1.0786    -0.3681 H       
  47 H47            3.0319    -0.0501     0.7971 H       
  48 H48            5.9171    -1.3359    -1.4820 H       
  49 H49            2.8415    -4.0746    -2.6318 H       
  50 H50            4.3711    -5.1095    -4.2583 H       
  51 H51            7.4452    -2.3676    -3.1119 H       
  52 H52            8.0742    -2.6872    -4.9924 H       
  53 H53            8.6056    -3.7807    -3.6913 H       
  54 H54            5.3378    -4.8841    -6.0630 H       
  55 H55            6.1551    -3.3352    -6.3853 H       
  56 H56            7.3538    -6.1199    -6.7472 H       
  57 H57            6.8577    -5.0091    -8.0477 H       
  58 H58           10.0801    -3.9210    -5.7090 H       
  59 H59            9.2782    -5.4701    -5.3506 H       
@<TRIPOS>BOND
   1    1    2 2
   2    1   33 1
   3    1    6 1
   4    2    3 1
   5    2   10 1
   6    3    4 2
   7    3   35 1
   8    4    5 1
   9    4   36 1
  10    5    6 1
  11    5    7 1
  12    6    9 2
  13    7    8 2
  14    7   11 1
  15    8    9 1
  16    8   37 1
  17   10   12 1
  18   10   16 1
  19   11   29 1
  20   11   38 1
  21   11   39 1
  22   12   13 1
  23   12   40 1
  24   12   41 1
  25   13   14 1
  26   13   42 1
  27   13   43 1
  28   14   15 1
  29   14   17 1
  30   15   16 1
  31   15   44 1
  32   15   45 1
  33   16   46 1
  34   16   47 1
  35   17   18 ar
  36   17   19 ar
  37   18   22 ar
  38   18   48 1
  39   19   20 ar
  40   19   49 1
  41   20   21 ar
  42   20   50 1
  43   21   22 ar
  44   21   23 1
  45   22   51 1
  46   23   24 1
  47   23   25 1
  48   24   28 1
  49   24   52 1
  50   24   53 1
  51   25   26 1
  52   25   54 1
  53   25   55 1
  54   26   27 1
  55   26   56 1
  56   26   57 1
  57   27   28 1
  58   28   58 1
  59   28   59 1
  60   29   30 1
  61   29   31 1
  62   29   32 1
  63   33   34 3

#	End of record

