#	Name: ASD01911258
#	Creating user name:	WinNT
#	Creation time:	15. 06. 2019 19:57

#	Modifying user name:	WinNT
#	Modification time:	15. 06. 2019 19:57

#	Program:	/corina/corina34_cracker 3.40 0067  02.08.2006

@<TRIPOS>MOLECULE
ASD01911258
  47   50    0    0    0
SMALL
NO_CHARGES


@<TRIPOS>ATOM
   1 C1            -0.2894     0.6938     0.1874 C.3     
   2 C2             0.4432    -0.6303     0.4259 C.3     
   3 N3             1.2277    -0.9591    -0.7721 N.am    
   4 C4             2.1677     0.0405    -1.2973 C.3     
   5 C5             1.4158     1.3571    -1.5165 C.3     
   6 C6             0.7241     1.7677    -0.2145 C.3     
   7 C7             1.0881    -2.1552    -1.3774 C.2     
   8 O8             1.6710    -2.3805    -2.4169 O.2     
   9 C9             0.2077    -3.2126    -0.7627 C.3     
  10 C10            2.7368    -0.4404    -2.6073 C.2     
  11 N11            3.9585    -0.8639    -2.8160 N.2     
  12 C12            4.0115    -1.1875    -4.1278 C.2     
  13 N13            2.8306    -0.9437    -4.6336 N.2     
  14 O14            2.0880    -0.5202    -3.7732 O.3     
  15 C15            5.1897    -1.7192    -4.8573 C.ar    
  16 C16            5.0975    -2.0094    -6.2167 C.ar    
  17 C17            6.1956    -2.5039    -6.8915 C.ar    
  18 C18            7.3869    -2.7118    -6.2212 C.ar    
  19 C19            7.4852    -2.4257    -4.8690 C.ar    
  20 C20            6.3931    -1.9244    -4.1859 C.ar    
  21 F21            8.6515    -2.6316    -4.2188 F       
  22 C22            0.2145    -4.4782    -1.6379 C.3     
  23 C23            0.7738    -5.6175    -0.7610 C.3     
  24 C24            0.4969    -5.1510     0.6898 C.3     
  25 C25            0.7632    -3.6270     0.6155 C.3     
  26 H26           -1.0204     0.5664    -0.6110 H       
  27 H27           -0.7982     0.9979     1.1021 H       
  28 H28            1.1093    -0.5302     1.2828 H       
  29 H29           -0.2830    -1.4207     0.6154 H       
  30 H30            2.9745     0.1954    -0.5809 H       
  31 H31            2.1206     2.1333    -1.8145 H       
  32 H32            0.6687     1.2235    -2.2989 H       
  33 H33            0.2086     2.7169    -0.3609 H       
  34 H34            1.4691     1.8771     0.5736 H       
  35 H35           -0.8099    -2.8363    -0.6582 H       
  36 H36            4.1677    -1.8480    -6.7420 H       
  37 H37            6.1239    -2.7291    -7.9453 H       
  38 H38            8.2434    -3.0988    -6.7532 H       
  39 H39            6.4696    -1.7013    -3.1320 H       
  40 H40           -0.8000    -4.7166    -1.9574 H       
  41 H41            0.8545    -4.3276    -2.5073 H       
  42 H42            0.2501    -6.5507    -0.9681 H       
  43 H43            1.8448    -5.7352    -0.9260 H       
  44 H44           -0.5380    -5.3492     0.9684 H       
  45 H45            1.1843    -5.6297     1.3873 H       
  46 H46            1.8325    -3.4233     0.6728 H       
  47 H47            0.2317    -3.1075     1.4129 H       
@<TRIPOS>BOND
   1    1    2 1
   2    1    6 1
   3    1   26 1
   4    1   27 1
   5    2    3 1
   6    2   28 1
   7    2   29 1
   8    3    4 1
   9    3    7 am
  10    4    5 1
  11    4   10 1
  12    4   30 1
  13    5    6 1
  14    5   31 1
  15    5   32 1
  16    6   33 1
  17    6   34 1
  18    7    8 2
  19    7    9 1
  20    9   22 1
  21    9   25 1
  22    9   35 1
  23   10   11 2
  24   10   14 1
  25   11   12 1
  26   12   13 2
  27   12   15 1
  28   13   14 1
  29   15   16 ar
  30   15   20 ar
  31   16   17 ar
  32   16   36 1
  33   17   18 ar
  34   17   37 1
  35   18   19 ar
  36   18   38 1
  37   19   20 ar
  38   19   21 1
  39   20   39 1
  40   22   23 1
  41   22   40 1
  42   22   41 1
  43   23   24 1
  44   23   42 1
  45   23   43 1
  46   24   25 1
  47   24   44 1
  48   24   45 1
  49   25   46 1
  50   25   47 1

#	End of record

