#	Name: ASD03330894
#	Creating user name:	WinNT
#	Creation time:	15. 06. 2019 20:38

#	Modifying user name:	WinNT
#	Modification time:	15. 06. 2019 20:38

#	Program:	/corina/corina34_cracker 3.40 0067  02.08.2006

@<TRIPOS>MOLECULE
ASD03330894
  63   65    0    0    0
SMALL
NO_CHARGES


@<TRIPOS>ATOM
   1 N1             0.4387     0.9285    -0.2642 N.pl3   
   2 C2             0.3259    -0.4194    -0.2058 C.2     
   3 C3             1.4712    -1.3975    -0.1853 C.3     
   4 N4             2.4680    -0.9536     0.8014 N.3     
   5 C5             3.4458    -0.0481     0.1948 C.3     
   6 C6             2.7962     0.8056    -0.8909 C.3     
   7 C7             1.6986     1.6783    -0.2769 C.3     
   8 C8            -0.8151     1.4456    -0.2963 C.2     
   9 N9            -1.6767     0.4698    -0.2420 N.2     
  10 C10           -1.0032    -0.7090    -0.1817 C.2     
  11 C11           -1.6020    -2.0529    -0.1055 C.2     
  12 O12           -0.8868    -3.0355    -0.0571 O.2     
  13 N13           -2.9423    -2.1935    -0.0894 N.am    
  14 C14            3.1336    -2.1021     1.4306 C.3     
  15 C15           -4.9222    -3.4974    -0.6080 C.2     
  16 C16           -3.5378    -3.5299    -0.0137 C.3     
  17 C17           -3.6211    -3.9689     1.4496 C.3     
  18 C18           -4.3937    -2.9210     2.2533 C.3     
  19 O19           -5.5703    -2.4726    -0.5800 O.2     
  20 N20           -5.4403    -4.6072    -1.1705 N.am    
  21 C21           -6.8249    -4.6077    -1.6493 C.3     
  22 C22           -4.3441    -5.3144     1.5381 C.3     
  23 C23           -2.2088    -4.1104     2.0209 C.3     
  24 C24           -1.1560     2.9111    -0.3805 C.3     
  25 C25           -1.2667     3.3188    -1.8271 C.ar    
  26 C26           -2.4592     3.1381    -2.5079 C.ar    
  27 C27           -2.5607     3.5130    -3.8362 C.ar    
  28 C28           -1.4699     4.0682    -4.4830 C.ar    
  29 C29           -0.2788     4.2478    -3.8005 C.ar    
  30 C30           -0.1801     3.8779    -2.4723 C.ar    
  31 F31           -1.5674     4.4342    -5.7798 F       
  32 F32           -3.5228     2.5958    -1.8756 F       
  33 H33            1.1016    -2.3854     0.0894 H       
  34 H34            1.9305    -1.4411    -1.1728 H       
  35 H35            3.8568     0.6040     0.9655 H       
  36 H36            4.2526    -0.6344    -0.2451 H       
  37 H37            3.5513     1.4432    -1.3507 H       
  38 H38            2.3605     0.1562    -1.6502 H       
  39 H39            1.5777     2.5837    -0.8717 H       
  40 H40            1.9737     1.9456     0.7434 H       
  41 H41           -3.5127    -1.4099    -0.1280 H       
  42 H42            3.6377    -2.6934     0.6662 H       
  43 H43            3.8653    -1.7456     2.1556 H       
  44 H44            2.3915    -2.7195     1.9369 H       
  45 H45           -2.9201    -4.2350    -0.5699 H       
  46 H46           -5.3998    -2.8202     1.8463 H       
  47 H47           -4.4530    -3.2338     3.2958 H       
  48 H48           -3.8786    -1.9625     2.1903 H       
  49 H49           -4.8964    -5.4055    -1.2585 H       
  50 H50           -7.4969    -4.3957    -0.8177 H       
  51 H51           -6.9442    -3.8431    -2.4169 H       
  52 H52           -7.0637    -5.5847    -2.0695 H       
  53 H53           -3.7679    -6.0721     1.0069 H       
  54 H54           -4.4472    -5.6034     2.5840 H       
  55 H55           -5.3321    -5.2263     1.0863 H       
  56 H56           -1.6937    -3.1518     1.9579 H       
  57 H57           -2.2681    -4.4231     3.0633 H       
  58 H58           -1.6583    -4.8569     1.4483 H       
  59 H59           -2.1061     3.0926     0.1218 H       
  60 H60           -0.3723     3.4948     0.1025 H       
  61 H61           -3.4902     3.3722    -4.3680 H       
  62 H62            0.5724     4.6810    -4.3049 H       
  63 H63            0.7482     4.0222    -1.9395 H       
@<TRIPOS>BOND
   1    1    2 1
   2    1    7 1
   3    1    8 1
   4    2    3 1
   5    2   10 2
   6    3    4 1
   7    3   33 1
   8    3   34 1
   9    4    5 1
  10    4   14 1
  11    5    6 1
  12    5   35 1
  13    5   36 1
  14    6    7 1
  15    6   37 1
  16    6   38 1
  17    7   39 1
  18    7   40 1
  19    8    9 2
  20    8   24 1
  21    9   10 1
  22   10   11 1
  23   11   12 2
  24   11   13 am
  25   13   16 1
  26   13   41 1
  27   14   42 1
  28   14   43 1
  29   14   44 1
  30   15   19 2
  31   15   20 am
  32   15   16 1
  33   16   17 1
  34   16   45 1
  35   17   18 1
  36   17   22 1
  37   17   23 1
  38   18   46 1
  39   18   47 1
  40   18   48 1
  41   20   21 1
  42   20   49 1
  43   21   50 1
  44   21   51 1
  45   21   52 1
  46   22   53 1
  47   22   54 1
  48   22   55 1
  49   23   56 1
  50   23   57 1
  51   23   58 1
  52   24   25 1
  53   24   59 1
  54   24   60 1
  55   25   26 ar
  56   25   30 ar
  57   26   27 ar
  58   26   32 1
  59   27   28 ar
  60   27   61 1
  61   28   29 ar
  62   28   31 1
  63   29   30 ar
  64   29   62 1
  65   30   63 1

#	End of record

