#	Name: ASD01812734
#	Creating user name:	WinNT
#	Creation time:	15. 06. 2019 19:29

#	Modifying user name:	WinNT
#	Modification time:	15. 06. 2019 19:29

#	Program:	/corina/corina34_cracker 3.40 0067  02.08.2006

@<TRIPOS>MOLECULE
ASD01812734
  58   61    0    0    0
SMALL
NO_CHARGES


@<TRIPOS>ATOM
   1 N1            -0.0158     1.3147     0.0093 N.ar    
   2 C2             0.0021    -0.0041     0.0020 C.ar    
   3 C3             1.1989    -0.7033    -0.0127 C.ar    
   4 C4             2.3829    -0.0013    -0.0202 C.ar    
   5 C5             2.3448     1.3978    -0.0128 C.ar    
   6 C6             1.0955     2.0332     0.0025 C.ar    
   7 C7             3.8373    -0.3889    -0.0363 C.3     
   8 N8             4.5955     0.8684    -0.0373 N.am    
   9 C9             3.7280     1.8961    -0.0237 C.2     
  10 C10            6.0558     0.9844    -0.0504 C.3     
  11 C11            6.5432     1.0311    -1.4757 C.ar    
  12 C12            6.6712     2.2480    -2.1206 C.ar    
  13 C13            7.1171     2.2967    -3.4259 C.ar    
  14 C14            7.4386     1.1168    -4.0939 C.ar    
  15 C15            7.3078    -0.1064    -3.4393 C.ar    
  16 C16            6.8664    -0.1428    -2.1321 C.ar    
  17 O17            1.0255     3.3856     0.0100 O.3     
  18 O18            4.0429     3.0706    -0.0212 O.2     
  19 C19           -0.2795     3.9677     0.0251 C.3     
  20 C20            7.9181     1.1627    -5.4973 C.ar    
  21 C21            8.0549     2.3805    -6.1698 C.ar    
  22 C22            8.5040     2.3780    -7.4742 C.ar    
  23 N23            8.8022     1.2475    -8.0856 N.ar    
  24 C24            8.6871     0.0776    -7.4871 C.ar    
  25 C25            8.2506    -0.0099    -6.1809 C.ar    
  26 C26            9.0430    -1.1797    -8.2378 C.3     
  27 C27           -0.2441     5.3221     0.7545 C.3     
  28 C28           -0.6907     6.3859    -0.2696 C.3     
  29 C29           -1.5243     5.5904    -1.3046 C.3     
  30 C30           -0.7464     4.2557    -1.4167 C.3     
  31 O31           -1.1433     5.3037     1.8650 O.3     
  32 H32           -0.9309    -0.5480     0.0080 H       
  33 H33            1.2023    -1.7833    -0.0178 H       
  34 H34            4.0797    -0.9721     0.8522 H       
  35 H35            4.0624    -0.9631    -0.9351 H       
  36 H36            6.3524     1.8979     0.4651 H       
  37 H37            6.4932     0.1235     0.4552 H       
  38 H38            6.4213     3.1618    -1.6020 H       
  39 H39            7.2163     3.2474    -3.9286 H       
  40 H40            7.5556    -1.0238    -3.9524 H       
  41 H41            6.7688    -1.0899    -1.6223 H       
  42 H42           -0.9819     3.2961     0.5187 H       
  43 H43            7.8123     3.3097    -5.6755 H       
  44 H44            8.6126     3.3139    -8.0021 H       
  45 H45            8.1634    -0.9707    -5.6954 H       
  46 H46           10.0980    -1.4076    -8.0853 H       
  47 H47            8.4358    -2.0068    -7.8699 H       
  48 H48            8.8528    -1.0342    -9.3012 H       
  49 H49            0.7685     5.5355     1.0969 H       
  50 H50           -1.3059     7.1454     0.2130 H       
  51 H51            0.1758     6.8427    -0.7476 H       
  52 H52           -2.5355     5.4183    -0.9360 H       
  53 H53           -1.5444     6.1075    -2.2639 H       
  54 H54            0.1112     4.3685    -2.0800 H       
  55 H55           -1.4022     3.4605    -1.7713 H       
  56 H56           -1.1665     6.1305     2.3660 H       
  57 Cl57          15.0980    12.1454     7.3660 Cl      
  58 H58           15.0980    13.5154     7.3660 H       
@<TRIPOS>BOND
   1    1    2 ar
   2    1    6 ar
   3    2    3 ar
   4    2   32 1
   5    3    4 ar
   6    3   33 1
   7    4    7 1
   8    4    5 ar
   9    5    6 ar
  10    5    9 1
  11    6   17 1
  12    7    8 1
  13    7   34 1
  14    7   35 1
  15    8    9 am
  16    8   10 1
  17    9   18 2
  18   10   11 1
  19   10   36 1
  20   10   37 1
  21   11   12 ar
  22   11   16 ar
  23   12   13 ar
  24   12   38 1
  25   13   14 ar
  26   13   39 1
  27   14   15 ar
  28   14   20 1
  29   15   16 ar
  30   15   40 1
  31   16   41 1
  32   17   19 1
  33   19   27 1
  34   19   30 1
  35   19   42 1
  36   20   21 ar
  37   20   25 ar
  38   21   22 ar
  39   21   43 1
  40   22   23 ar
  41   22   44 1
  42   23   24 ar
  43   24   25 ar
  44   24   26 1
  45   25   45 1
  46   26   46 1
  47   26   47 1
  48   26   48 1
  49   27   28 1
  50   27   31 1
  51   27   49 1
  52   28   29 1
  53   28   50 1
  54   28   51 1
  55   29   30 1
  56   29   52 1
  57   29   53 1
  58   30   54 1
  59   30   55 1
  60   31   56 1
  61   57   58 1

#	End of record

