#	Name: ASD04882523
#	Creating user name:	WinNT
#	Creation time:	15. 06. 2019 20:54

#	Modifying user name:	WinNT
#	Modification time:	15. 06. 2019 20:54

#	Program:	/corina/corina34_cracker 3.40 0067  02.08.2006

@<TRIPOS>MOLECULE
ASD04882523
  83   88    0    0    0
SMALL
NO_CHARGES


@<TRIPOS>ATOM
   1 C1            -0.0215     1.4012    -0.0092 C.ar    
   2 C2            -0.0115     0.0036    -0.0052 C.ar    
   3 C3            -1.2094    -0.7019    -0.0160 C.ar    
   4 C4            -2.4097    -0.0268    -0.0310 C.ar    
   5 C5            -2.4267     1.3708    -0.0350 C.ar    
   6 C6            -1.2239     2.0825    -0.0185 C.ar    
   7 N7             1.1998    -0.6830     0.0090 N.3     
   8 C8             1.3075    -1.5362     1.2007 C.3     
   9 C9             1.3717    -1.4731    -1.2181 C.3     
  10 C10            2.7456    -2.1474    -1.1992 C.3     
  11 N11            2.8533    -3.0005    -0.0075 N.3     
  12 C12            2.6814    -2.2105     1.2196 C.3     
  13 C13           -3.7126     2.0937    -0.0516 C.2     
  14 O14           -3.7265     3.3096    -0.0551 O.2     
  15 N15           -4.8720     1.4065    -0.0628 N.am    
  16 N16            1.1866     2.1110     0.0021 N.am    
  17 C17            4.0684    -3.6893     0.0068 C.ar    
  18 C18            1.2296     3.3600     0.5068 C.2     
  19 C19            2.5162     4.0732     0.6000 C.2     
  20 O20            0.2069     3.8985     0.8853 O.2     
  21 N21            3.7329     3.5991     0.2178 N.2     
  22 C22            4.6244     4.5145     0.4539 C.2     
  23 O23            4.0245     5.5887     0.9859 O.3     
  24 C24            2.7098     5.3324     1.0790 C.2     
  25 C25            5.2665    -2.9869     0.0170 C.ar    
  26 C26            6.4663    -3.6712     0.0316 C.ar    
  27 C27            6.4754    -5.0538     0.0356 C.ar    
  28 C28            5.2841    -5.7564     0.0254 C.ar    
  29 C29            4.0811    -5.0785     0.0166 C.ar    
  30 C30            2.7835    -5.8449     0.0060 C.3     
  31 C31           -6.1489     2.1244    -0.0793 C.3     
  32 C32           -7.3003     1.1169    -0.0895 C.3     
  33 C33           -8.6339     1.8667    -0.1067 C.3     
  34 N34           -9.7364     0.9020    -0.1165 N.am    
  35 C35          -10.3201     0.4060     0.9881 C.2     
  36 C36          -10.3497     0.3577    -1.3337 C.3     
  37 C37          -11.1261    -0.8977    -0.8781 C.3     
  38 C38          -11.4126    -0.5684     0.6065 C.3     
  39 O39          -10.0147     0.6967     2.1253 O.2     
  40 C40            7.7668    -2.9099     0.0428 C.3     
  41 C41            6.0998     4.3882     0.1743 C.3     
  42 C42            6.7243     5.3956    -0.7932 C.3     
  43 C43            7.0165     5.4920     0.7055 C.3     
  44 H44           -1.1986    -1.7819    -0.0129 H       
  45 H45           -3.3385    -0.5778    -0.0400 H       
  46 H46           -1.2340     3.1625    -0.0213 H       
  47 H47            1.1893    -0.9264     2.0964 H       
  48 H48            0.5287    -2.2984     1.1739 H       
  49 H49            0.5937    -2.2346    -1.2724 H       
  50 H50            1.3004    -0.8173    -2.0858 H       
  51 H51            2.8638    -2.7572    -2.0949 H       
  52 H52            3.5244    -1.3852    -1.1724 H       
  53 H53            3.4594    -1.4490     1.2739 H       
  54 H54            2.7527    -2.8662     2.0873 H       
  55 H55           -4.8609     0.4366    -0.0600 H       
  56 H56            1.9919     1.7035    -0.3534 H       
  57 H57            1.9513     5.9965     1.4664 H       
  58 H58            5.2601    -1.9070     0.0132 H       
  59 H59            7.4149    -5.5864     0.0463 H       
  60 H60            5.2947    -6.8363     0.0282 H       
  61 H61            2.4627    -6.0304     1.0310 H       
  62 H62            2.0221    -5.2629    -0.5134 H       
  63 H63            2.9272    -6.7956    -0.5074 H       
  64 H64           -6.2239     2.7528     0.8082 H       
  65 H65           -6.2037     2.7479    -0.9716 H       
  66 H66           -7.2254     0.4885    -0.9770 H       
  67 H67           -7.2455     0.4934     0.8029 H       
  68 H68           -8.7089     2.4951     0.7808 H       
  69 H69           -8.6887     2.4902    -0.9991 H       
  70 H70          -11.0331     1.0862    -1.7699 H       
  71 H71           -9.5791     0.0837    -2.0543 H       
  72 H72          -12.0549    -1.0065    -1.4381 H       
  73 H73          -10.5099    -1.7921    -0.9699 H       
  74 H74          -11.3500    -1.4698     1.2161 H       
  75 H75          -12.3925    -0.1027     0.7117 H       
  76 H76            8.0697    -2.7232     1.0731 H       
  77 H77            8.5353    -3.4961    -0.4612 H       
  78 H78            7.6362    -1.9599    -0.4754 H       
  79 H79            6.4908     3.3708     0.1632 H       
  80 H80            7.5264     5.0410    -1.4406 H       
  81 H81            6.0679     6.1497    -1.2275 H       
  82 H82            6.5524     6.3095     1.2572 H       
  83 H83            8.0108     5.2009     1.0442 H       
@<TRIPOS>BOND
   1    1    2 ar
   2    1   16 1
   3    1    6 ar
   4    2    3 ar
   5    2    7 1
   6    3    4 ar
   7    3   44 1
   8    4    5 ar
   9    4   45 1
  10    5    6 ar
  11    5   13 1
  12    6   46 1
  13    7    8 1
  14    7    9 1
  15    8   12 1
  16    8   47 1
  17    8   48 1
  18    9   10 1
  19    9   49 1
  20    9   50 1
  21   10   11 1
  22   10   51 1
  23   10   52 1
  24   11   12 1
  25   11   17 1
  26   12   53 1
  27   12   54 1
  28   13   14 2
  29   13   15 am
  30   15   31 1
  31   15   55 1
  32   16   18 am
  33   16   56 1
  34   17   25 ar
  35   17   29 ar
  36   18   19 1
  37   18   20 2
  38   19   21 1
  39   19   24 2
  40   21   22 2
  41   22   23 1
  42   22   41 1
  43   23   24 1
  44   24   57 1
  45   25   26 ar
  46   25   58 1
  47   26   27 ar
  48   26   40 1
  49   27   28 ar
  50   27   59 1
  51   28   29 ar
  52   28   60 1
  53   29   30 1
  54   30   61 1
  55   30   62 1
  56   30   63 1
  57   31   32 1
  58   31   64 1
  59   31   65 1
  60   32   33 1
  61   32   66 1
  62   32   67 1
  63   33   34 1
  64   33   68 1
  65   33   69 1
  66   34   35 am
  67   34   36 1
  68   35   39 2
  69   35   38 1
  70   36   37 1
  71   36   70 1
  72   36   71 1
  73   37   38 1
  74   37   72 1
  75   37   73 1
  76   38   74 1
  77   38   75 1
  78   40   76 1
  79   40   77 1
  80   40   78 1
  81   41   42 1
  82   41   43 1
  83   41   79 1
  84   42   43 1
  85   42   80 1
  86   42   81 1
  87   43   82 1
  88   43   83 1

#	End of record

