#	Name: ASD01916196
#	Creating user name:	WinNT
#	Creation time:	15. 06. 2019 20:06

#	Modifying user name:	WinNT
#	Modification time:	15. 06. 2019 20:06

#	Program:	/corina/corina34_cracker 3.40 0067  02.08.2006

@<TRIPOS>MOLECULE
ASD01916196
  41   43    0    0    0
SMALL
NO_CHARGES


@<TRIPOS>ATOM
   1 C1            -0.3965     1.7261     0.1089 C.ar    
   2 C2            -0.5256     0.3757     0.3787 C.ar    
   3 N3             0.5196    -0.3514     0.7120 N.ar    
   4 C4             1.7363     0.1734     0.8038 C.ar    
   5 C5             1.9459     1.5247     0.5477 C.ar    
   6 C6             0.8599     2.3204     0.1923 C.ar    
   7 C7            -1.8832    -0.2725     0.2904 C.3     
   8 O8             1.0220     3.6431    -0.0660 O.3     
   9 C9             2.2723     4.1651     0.0391 C.ar    
  10 C10            3.2032     3.9708    -0.9718 C.ar    
  11 N11            4.4172     4.4747    -0.8754 N.ar    
  12 C12            4.7966     5.1780     0.1735 C.ar    
  13 C13            3.9247     5.4151     1.2226 C.ar    
  14 C14            2.6351     4.9064     1.1586 C.ar    
  15 C15            2.8803    -0.6879     1.1827 C.2     
  16 N16            2.6841    -1.9977     1.4324 N.am    
  17 O17            3.9957    -0.2136     1.2683 O.2     
  18 C18            3.7700    -2.8274     1.6848 C.ar    
  19 C19            3.5686    -4.1979     1.8255 C.ar    
  20 C20            4.6510    -5.0165     2.0756 C.ar    
  21 C21            5.9208    -4.4294     2.1787 C.ar    
  22 C22            6.0422    -3.0469     2.0255 C.ar    
  23 N23            4.9834    -2.3035     1.7828 N.ar    
  24 C24           -1.8177    -1.4648    -0.6662 C.3     
  25 F25            4.3229     6.1365     2.2932 F       
  26 C26            7.0754    -5.2359     2.4378 C.1     
  27 N27            7.9913    -5.8757     2.6433 N.1     
  28 H28           -1.2603     2.3124    -0.1680 H       
  29 H29            2.9358     1.9500     0.6235 H       
  30 H30           -2.1867    -0.6163     1.2792 H       
  31 H31           -2.6082     0.4518    -0.0808 H       
  32 H32            2.9298     3.4001    -1.8470 H       
  33 H33            5.8006     5.5738     0.2151 H       
  34 H34            1.9318     5.0787     1.9598 H       
  35 H35            1.7848    -2.3614     1.4360 H       
  36 H36            2.5763    -4.6156     1.7402 H       
  37 H37            4.5235    -6.0829     2.1894 H       
  38 H38            7.0146    -2.5835     2.1032 H       
  39 H39           -1.5142    -1.1210    -1.6551 H       
  40 H40           -1.0927    -2.1891    -0.2950 H       
  41 H41           -2.7997    -1.9337    -0.7301 H       
@<TRIPOS>BOND
   1    1    2 ar
   2    1    6 ar
   3    1   28 1
   4    2    3 ar
   5    2    7 1
   6    3    4 ar
   7    4    5 ar
   8    4   15 1
   9    5    6 ar
  10    5   29 1
  11    6    8 1
  12    7   24 1
  13    7   30 1
  14    7   31 1
  15    8    9 1
  16    9   10 ar
  17    9   14 ar
  18   10   11 ar
  19   10   32 1
  20   11   12 ar
  21   12   13 ar
  22   12   33 1
  23   13   25 1
  24   13   14 ar
  25   14   34 1
  26   15   16 am
  27   15   17 2
  28   16   18 1
  29   16   35 1
  30   18   19 ar
  31   18   23 ar
  32   19   20 ar
  33   19   36 1
  34   20   21 ar
  35   20   37 1
  36   21   22 ar
  37   21   26 1
  38   22   23 ar
  39   22   38 1
  40   24   39 1
  41   24   40 1
  42   24   41 1
  43   26   27 3

#	End of record

