#	Name: ASD03090199
#	Creating user name:	WinNT
#	Creation time:	15. 06. 2019 20:28

#	Modifying user name:	WinNT
#	Modification time:	15. 06. 2019 20:28

#	Program:	/corina/corina34_cracker 3.40 0067  02.08.2006

@<TRIPOS>MOLECULE
ASD03090199
  55   58    0    0    0
SMALL
NO_CHARGES


@<TRIPOS>ATOM
   1 C1            -0.2766     0.9641    -0.8379 C.ar    
   2 C2             0.8557     1.5073    -1.4542 C.ar    
   3 C3             2.0884     0.9220    -1.2875 C.ar    
   4 C4             2.2189    -0.2227    -0.4987 C.ar    
   5 C5             1.0908    -0.7660     0.1174 C.ar    
   6 C6            -0.1419    -0.1738    -0.0546 C.ar    
   7 C7             3.5431    -0.8549    -0.3177 C.2     
   8 N8             7.0576    -0.8949    -0.4050 N.pl3   
   9 C9             7.4923     0.3148    -0.9563 C.ar    
  10 C10            6.7279     0.9521    -1.9249 C.ar    
  11 C11            7.1592     2.1467    -2.4680 C.ar    
  12 C12            8.3526     2.7087    -2.0474 C.ar    
  13 C13            9.1165     2.0750    -1.0816 C.ar    
  14 C14            8.6865     0.8835    -0.5318 C.ar    
  15 N15            4.7114    -0.2883    -0.5476 N.2     
  16 C16            5.6914    -1.1526    -0.2764 C.2     
  17 N17            5.1644    -2.2839     0.1307 N.2     
  18 N18            3.7705    -2.1146     0.1184 N.pl3   
  19 C19            2.7621    -3.1088     0.4941 C.3     
  20 C20            2.5208    -3.0451     2.0036 C.3     
  21 C21            1.4836    -4.0677     2.3901 C.2     
  22 F22            8.7727     3.8770    -2.5803 F       
  23 N23            1.1085    -4.1935     3.6785 N.am    
  24 O24            0.9864    -4.7777     1.5417 O.2     
  25 C25            0.1002    -5.1876     4.0542 C.3     
  26 C26            1.7091    -3.3359     4.7032 C.3     
  27 C27           -1.5037    -0.5475     0.4874 C.3     
  28 C28           -2.4512     0.5210    -0.0819 C.3     
  29 N29           -1.5977     1.4064    -0.8783 N.pl3   
  30 C30           10.4150     2.6892    -0.6259 C.3     
  31 F31           11.0012     1.8724     0.3469 F       
  32 F32           11.2819     2.8104    -1.7172 F       
  33 F33           10.1673     3.9551    -0.0843 F       
  34 H34            0.7608     2.3925    -2.0655 H       
  35 H35            2.9569     1.3479    -1.7677 H       
  36 H36            1.1837    -1.6512     0.7292 H       
  37 H37            7.7053    -1.5549    -0.1120 H       
  38 H38            5.7972     0.5139    -2.2535 H       
  39 H39            6.5653     2.6425    -3.2215 H       
  40 H40            9.2825     0.3896     0.2214 H       
  41 H41            1.8309    -2.8985    -0.0320 H       
  42 H42            3.1151    -4.1041     0.2243 H       
  43 H43            3.4520    -3.2553     2.5296 H       
  44 H44            2.1678    -2.0497     2.2734 H       
  45 H45            0.4532    -6.1830     3.7844 H       
  46 H46           -0.0717    -5.1422     5.1296 H       
  47 H47           -0.8310    -4.9774     3.5282 H       
  48 H48            1.1166    -2.4272     4.8095 H       
  49 H49            1.7321    -3.8679     5.6543 H       
  50 H50            2.7254    -3.0747     4.4084 H       
  51 H51           -1.7936    -1.5383     0.1375 H       
  52 H52           -1.5021    -0.5131     1.5768 H       
  53 H53           -3.2109     0.0565    -0.7105 H       
  54 H54           -2.9196     1.0809     0.7275 H       
  55 H55           -1.9081     2.1842    -1.3678 H       
@<TRIPOS>BOND
   1    1    2 ar
   2    1    6 ar
   3    1   29 1
   4    2    3 ar
   5    2   34 1
   6    3    4 ar
   7    3   35 1
   8    4    5 ar
   9    4    7 1
  10    5    6 ar
  11    5   36 1
  12    6   27 1
  13    7   15 2
  14    7   18 1
  15    8    9 1
  16    8   16 1
  17    8   37 1
  18    9   10 ar
  19    9   14 ar
  20   10   11 ar
  21   10   38 1
  22   11   12 ar
  23   11   39 1
  24   12   13 ar
  25   12   22 1
  26   13   14 ar
  27   13   30 1
  28   14   40 1
  29   15   16 1
  30   16   17 2
  31   17   18 1
  32   18   19 1
  33   19   20 1
  34   19   41 1
  35   19   42 1
  36   20   21 1
  37   20   43 1
  38   20   44 1
  39   21   23 am
  40   21   24 2
  41   23   25 1
  42   23   26 1
  43   25   45 1
  44   25   46 1
  45   25   47 1
  46   26   48 1
  47   26   49 1
  48   26   50 1
  49   27   28 1
  50   27   51 1
  51   27   52 1
  52   28   29 1
  53   28   53 1
  54   28   54 1
  55   29   55 1
  56   30   31 1
  57   30   32 1
  58   30   33 1

#	End of record

