#	Name: ASD02198332
#	Creating user name:	WinNT
#	Creation time:	15. 06. 2019 20:19

#	Modifying user name:	WinNT
#	Modification time:	15. 06. 2019 20:19

#	Program:	/corina/corina34_cracker 3.40 0067  02.08.2006

@<TRIPOS>MOLECULE
ASD02198332
  42   44    0    0    0
SMALL
NO_CHARGES


@<TRIPOS>ATOM
   1 C1             0.4480     1.7103     0.0459 C.2     
   2 C2             0.5391     0.3362     0.1656 C.2     
   3 S3             2.0679     2.3737     0.2451 S.3     
   4 C4             2.7025     0.8024     0.4638 C.2     
   5 N5             1.7598    -0.0924     0.3870 N.2     
   6 N6            -0.5546    -0.5087     0.0616 N.pl3   
   7 C7            -0.7273     2.4469    -0.1974 C.2     
   8 C8            -0.6944     3.9244    -0.1612 C.ar    
   9 O9            -1.7722     1.8659    -0.4381 O.2     
  10 N10            4.0313     0.5206     0.6902 N.pl3   
  11 C11           -1.6007     4.6637    -0.9245 C.ar    
  12 C12            0.2393     4.5844     0.6409 C.ar    
  13 C13            0.2669     5.9612     0.6720 C.ar    
  14 C14           -0.6327     6.6935    -0.0933 C.ar    
  15 C15           -1.5669     6.0403    -0.8882 C.ar    
  16 C16            4.4363    -0.7980     0.9293 C.ar    
  17 C17            3.7738    -1.8511     0.3122 C.ar    
  18 C18            4.1739    -3.1514     0.5486 C.ar    
  19 C19            5.2373    -3.4060     1.4023 C.ar    
  20 C20            5.8996    -2.3547     2.0191 C.ar    
  21 C21            5.5044    -1.0534     1.7793 C.ar    
  22 O22           -0.6028     8.0502    -0.0597 O.3     
  23 C23           -1.5556     8.7404    -0.8708 C.3     
  24 F24           -1.3643     8.3933    -2.2125 F       
  25 F25           -2.8495     8.3831    -0.4766 F       
  26 O26            5.6303    -4.6868     1.6349 O.3     
  27 C27            6.7324    -4.8757     2.5248 C.3     
  28 H28           -1.4372    -0.1416    -0.1029 H       
  29 H29           -0.4374    -1.4673     0.1534 H       
  30 H30            4.6866     1.2357     0.6841 H       
  31 H31           -2.3268     4.1568    -1.5427 H       
  32 H32            0.9385     4.0160     1.2362 H       
  33 H33            0.9883     6.4723     1.2922 H       
  34 H34           -2.2645     6.6127    -1.4816 H       
  35 H35            2.9456    -1.6531    -0.3521 H       
  36 H36            3.6585    -3.9704     0.0691 H       
  37 H37            6.7274    -2.5537     2.6836 H       
  38 H38            6.0202    -0.2351     2.2596 H       
  39 H39           -1.4233     9.8157    -0.7513 H       
  40 H40            6.9422    -5.9409     2.6223 H       
  41 H41            7.6110    -4.3671     2.1281 H       
  42 H42            6.4845    -4.4632     3.5028 H       
@<TRIPOS>BOND
   1    1    2 2
   2    1    3 1
   3    1    7 1
   4    2    6 1
   5    2    5 1
   6    3    4 1
   7    4    5 2
   8    4   10 1
   9    6   28 1
  10    6   29 1
  11    7    8 1
  12    7    9 2
  13    8   11 ar
  14    8   12 ar
  15   10   16 1
  16   10   30 1
  17   11   15 ar
  18   11   31 1
  19   12   13 ar
  20   12   32 1
  21   13   14 ar
  22   13   33 1
  23   14   15 ar
  24   14   22 1
  25   15   34 1
  26   16   17 ar
  27   16   21 ar
  28   17   18 ar
  29   17   35 1
  30   18   19 ar
  31   18   36 1
  32   19   20 ar
  33   19   26 1
  34   20   21 ar
  35   20   37 1
  36   21   38 1
  37   22   23 1
  38   23   24 1
  39   23   25 1
  40   23   39 1
  41   26   27 1
  42   27   40 1
  43   27   41 1
  44   27   42 1

#	End of record

