#	Name: ASD01884282
#	Creating user name:	WinNT
#	Creation time:	15. 06. 2019 19:47

#	Modifying user name:	WinNT
#	Modification time:	15. 06. 2019 19:47

#	Program:	/corina/corina34_cracker 3.40 0067  02.08.2006

@<TRIPOS>MOLECULE
ASD01884282
  35   38    0    0    0
SMALL
NO_CHARGES


@<TRIPOS>ATOM
   1 C1            -0.1007     1.5547    -0.0862 C.ar    
   2 C2            -0.3096     0.2084     0.1827 C.ar    
   3 C3            -1.5679    -0.3392     0.0959 C.ar    
   4 C4            -2.6712     0.4482    -0.2663 C.ar    
   5 C5            -2.4426     1.7989    -0.5328 C.ar    
   6 C6            -1.1784     2.3516    -0.4401 C.ar    
   7 N7            -3.9924     0.0537    -0.3981 N.am    
   8 C8            -4.9003     0.9668    -0.7560 C.2     
   9 S9            -4.0165     2.4894    -0.9518 S.3     
  10 O10           -6.0937     0.7880    -0.9158 O.2     
  11 C11           -4.3862    -1.3356    -0.1510 C.3     
  12 C12           -4.7554    -1.5063     1.3240 C.3     
  13 C13           -5.3083    -2.8643     1.7612 C.3     
  14 C14           -3.8917    -2.4496     2.1638 C.3     
  15 F15           -2.8248    -3.0899     1.5242 F       
  16 F16           -3.6749    -2.1067     3.5027 F       
  17 O17            1.1472     2.0871     0.0023 O.3     
  18 C18            1.4413     2.8438     1.0893 C.ar    
  19 C19            2.6670     3.4927     1.1645 C.ar    
  20 N20            0.5556     2.9610     2.0651 N.ar    
  21 C21            0.8010     3.6867     3.1391 C.ar    
  22 C22            2.0009     4.3550     3.2829 C.ar    
  23 C23            2.9547     4.2617     2.2789 C.ar    
  24 H24            0.5260    -0.4158     0.4629 H       
  25 H25           -1.7086    -1.3886     0.3088 H       
  26 H26           -1.0294     3.4001    -0.6520 H       
  27 H27           -5.2464    -1.5854    -0.7721 H       
  28 H28           -3.5560    -1.9978    -0.3968 H       
  29 H29           -5.1550    -0.6187     1.8144 H       
  30 H30           -6.0714    -2.8700     2.5395 H       
  31 H31           -5.4091    -3.6360     0.9980 H       
  32 H32            3.3862     3.3983     0.3643 H       
  33 H33            0.0539     3.7593     3.9157 H       
  34 H34            2.1934     4.9475     4.1651 H       
  35 H35            3.9012     4.7743     2.3669 H       
@<TRIPOS>BOND
   1    1    2 ar
   2    1   17 1
   3    1    6 ar
   4    2    3 ar
   5    2   24 1
   6    3    4 ar
   7    3   25 1
   8    4    5 ar
   9    4    7 1
  10    5    6 ar
  11    5    9 1
  12    6   26 1
  13    7    8 am
  14    7   11 1
  15    8    9 1
  16    8   10 2
  17   11   12 1
  18   11   27 1
  19   11   28 1
  20   12   13 1
  21   12   14 1
  22   12   29 1
  23   13   14 1
  24   13   30 1
  25   13   31 1
  26   14   15 1
  27   14   16 1
  28   17   18 1
  29   18   19 ar
  30   18   20 ar
  31   19   23 ar
  32   19   32 1
  33   20   21 ar
  34   21   22 ar
  35   21   33 1
  36   22   23 ar
  37   22   34 1
  38   23   35 1

#	End of record

