#	Name: ASD04930031
#	Creating user name:	WinNT
#	Creation time:	15. 06. 2019 20:56

#	Modifying user name:	WinNT
#	Modification time:	15. 06. 2019 20:56

#	Program:	/corina/corina34_cracker 3.40 0067  02.08.2006

@<TRIPOS>MOLECULE
ASD04930031
  34   35    0    0    0
SMALL
NO_CHARGES


@<TRIPOS>ATOM
   1 C1             0.0284     1.0611    -0.1068 C.ar    
   2 C2            -0.0749    -0.3239    -0.0957 C.ar    
   3 C3            -1.3084    -0.9359    -0.0444 C.ar    
   4 C4            -2.4674    -0.1663    -0.0029 C.ar    
   5 C5            -2.3644     1.2362    -0.0136 C.ar    
   6 C6            -1.1040     1.8430    -0.0603 C.ar    
   7 N7            -3.7041    -0.7777     0.0476 N.am    
   8 C8            -4.8433    -0.0664     0.0881 C.2     
   9 C9            -4.8163     1.3960     0.0805 C.2     
  10 C10           -3.5827     2.0513     0.0299 C.2     
  11 O11           -3.5146     3.3987     0.0217 O.3     
  12 O12           -5.9131    -0.6474     0.1312 O.2     
  13 C13           -6.0650     2.1634     0.1245 C.2     
  14 O14           -6.0312     3.3741     0.2332 O.2     
  15 Cl15           1.5932     1.8100    -0.1724 Cl      
  16 O16           -7.2509     1.5266     0.0443 O.3     
  17 C17           -9.6846     1.4577    -0.0097 C.3     
  18 C18           -8.4460     2.3498     0.0943 C.3     
  19 C19           -3.7456    -2.7438     1.5015 C.3     
  20 C20           -3.7762    -2.2409     0.0569 C.3     
  21 H21            0.8203    -0.9271    -0.1280 H       
  22 H22           -1.3759    -2.0137    -0.0366 H       
  23 H23           -1.0204     2.9198    -0.0683 H       
  24 H24           -4.3754     3.8357    -0.0335 H       
  25 H25           -9.6947     0.7518     0.8208 H       
  26 H26          -10.5817     2.0757     0.0278 H       
  27 H27           -9.6598     0.9100    -0.9518 H       
  28 H28           -8.4707     2.8975     1.0364 H       
  29 H29           -8.4359     3.0557    -0.7362 H       
  30 H30           -4.5961    -2.3346     2.0468 H       
  31 H31           -3.7993    -3.8325     1.5084 H       
  32 H32           -2.8196    -2.4227     1.9785 H       
  33 H33           -4.7022    -2.5620    -0.4201 H       
  34 H34           -2.9258    -2.6500    -0.4884 H       
@<TRIPOS>BOND
   1    1    2 ar
   2    1   15 1
   3    1    6 ar
   4    2    3 ar
   5    2   21 1
   6    3    4 ar
   7    3   22 1
   8    4    5 ar
   9    4    7 1
  10    5    6 ar
  11    5   10 1
  12    6   23 1
  13    7    8 am
  14    7   20 1
  15    8    9 1
  16    8   12 2
  17    9   10 2
  18    9   13 1
  19   10   11 1
  20   11   24 1
  21   13   14 2
  22   13   16 1
  23   16   18 1
  24   17   18 1
  25   17   25 1
  26   17   26 1
  27   17   27 1
  28   18   28 1
  29   18   29 1
  30   19   20 1
  31   19   30 1
  32   19   31 1
  33   19   32 1
  34   20   33 1
  35   20   34 1

#	End of record

