#	Name: ASD01148871
#	Creating user name:	WinNT
#	Creation time:	15. 06. 2019 19:03

#	Modifying user name:	WinNT
#	Modification time:	15. 06. 2019 19:03

#	Program:	/corina/corina34_cracker 3.40 0067  02.08.2006

@<TRIPOS>MOLECULE
ASD01148871
  41   42    0    0    0
SMALL
NO_CHARGES


@<TRIPOS>ATOM
   1 C1            -0.0184     1.5028     0.0103 C.2     
   2 C2             0.0021    -0.0041     0.0020 C.3     
   3 C3            -0.7132    -0.5094    -1.2244 C.2     
   4 C4            -2.2111    -0.6738    -1.2090 C.3     
   5 O5             1.0197     2.1211     0.0037 O.2     
   6 O6            -1.1898     2.1580     0.0194 O.3     
   7 O7            -0.0860    -0.7827    -2.2195 O.2     
   8 C8             1.4513    -0.4944    -0.0145 C.3     
   9 C9             1.4746    -1.9968     0.1011 C.2     
  10 O10            0.4347    -2.6144     0.1880 O.2     
  11 C11            2.7588    -2.7139     0.1084 C.ar    
  12 C12            2.7843    -4.1086     0.2155 C.ar    
  13 C13            3.9912    -4.7739     0.2212 C.ar    
  14 C14            5.1776    -4.0648     0.1217 C.ar    
  15 C15            5.1600    -2.6833     0.0157 C.ar    
  16 C16            3.9603    -2.0051     0.0024 C.ar    
  17 Cl17           6.6932    -4.9112     0.1303 Cl      
  18 C18           -1.1335     3.6089     0.0270 C.3     
  19 C19           -2.5337     4.1659     0.0367 C.ar    
  20 C20           -3.1703     4.4149     1.2383 C.ar    
  21 C21           -4.4547     4.9258     1.2471 C.ar    
  22 C22           -5.1024     5.1882     0.0544 C.ar    
  23 C23           -4.4656     4.9401    -1.1471 C.ar    
  24 C24           -3.1795     4.4332    -1.1559 C.ar    
  25 H25           -0.4983    -0.3791     0.8948 H       
  26 H26           -2.6816     0.2523    -1.5394 H       
  27 H27           -2.4946    -1.4848    -1.8798 H       
  28 H28           -2.5406    -0.9076    -0.1966 H       
  29 H29            1.9257    -0.1944    -0.9488 H       
  30 H30            1.9924    -0.0570     0.8246 H       
  31 H31            1.8605    -4.6625     0.2939 H       
  32 H32            4.0125    -5.8505     0.3039 H       
  33 H33            6.0885    -2.1371    -0.0611 H       
  34 H34            3.9479    -0.9287    -0.0847 H       
  35 H35           -0.6017     3.9472     0.9164 H       
  36 H36           -0.6102     3.9569    -0.8636 H       
  37 H37           -2.6642     4.2099     2.1701 H       
  38 H38           -4.9523     5.1197     2.1859 H       
  39 H39           -6.1062     5.5867     0.0614 H       
  40 H40           -4.9718     5.1447    -2.0789 H       
  41 H41           -2.6806     4.2428    -2.0947 H       
@<TRIPOS>BOND
   1    1    2 1
   2    1    5 2
   3    1    6 1
   4    2    3 1
   5    2    8 1
   6    2   25 1
   7    3    4 1
   8    3    7 2
   9    4   26 1
  10    4   27 1
  11    4   28 1
  12    6   18 1
  13    8    9 1
  14    8   29 1
  15    8   30 1
  16    9   10 2
  17    9   11 1
  18   11   12 ar
  19   11   16 ar
  20   12   13 ar
  21   12   31 1
  22   13   14 ar
  23   13   32 1
  24   14   15 ar
  25   14   17 1
  26   15   16 ar
  27   15   33 1
  28   16   34 1
  29   18   19 1
  30   18   35 1
  31   18   36 1
  32   19   20 ar
  33   19   24 ar
  34   20   21 ar
  35   20   37 1
  36   21   22 ar
  37   21   38 1
  38   22   23 ar
  39   22   39 1
  40   23   24 ar
  41   23   40 1
  42   24   41 1

#	End of record

