#	Name: ASD04590587
#	Creating user name:	WinNT
#	Creation time:	15. 06. 2019 20:51

#	Modifying user name:	WinNT
#	Modification time:	15. 06. 2019 20:51

#	Program:	/corina/corina34_cracker 3.40 0067  02.08.2006

@<TRIPOS>MOLECULE
ASD04590587
  62   65    0    0    0
SMALL
NO_CHARGES


@<TRIPOS>ATOM
   1 C1            -0.0183     1.5001     0.0103 C.2     
   2 C2             0.0021    -0.0041     0.0020 C.3     
   3 C3             1.2916    -0.4889     0.6728 C.3     
   4 C4             2.4833     0.1285    -0.0624 C.3     
   5 C5             2.3773     1.6330    -0.0248 C.2     
   6 C6             1.1743     2.2447     0.0029 C.2     
   7 C7             1.0757     3.7494     0.0233 C.3     
   8 N8             3.5315     2.3692    -0.0165 N.pl3   
   9 C9             3.5255     3.6704     0.4022 C.2     
  10 C10            2.3772     4.3681     0.4414 C.2     
  11 C11            0.7144     4.2403    -1.3549 C.ar    
  12 C12           -0.4492     4.9609    -1.5490 C.ar    
  13 C13           -0.7806     5.4112    -2.8132 C.ar    
  14 C14            0.0519     5.1414    -3.8833 C.ar    
  15 C15            1.2160     4.4217    -3.6891 C.ar    
  16 C16            1.5495     3.9751    -2.4241 C.ar    
  17 C17            1.3064    -0.0474     2.1376 C.3     
  18 C18            1.3714    -2.0146     0.5908 C.3     
  19 O19           -1.0849     2.0822     0.0185 O.2     
  20 C20            4.8148     4.3270     0.8234 C.3     
  21 C21            2.3962     5.7113     0.8846 C.2     
  22 O22            3.4453     6.2244     1.2263 O.2     
  23 O23            1.2509     6.4236     0.9284 O.3     
  24 C24            1.3439     7.7741     1.3863 C.3     
  25 C25            1.7008    10.1456     0.6857 C.3     
  26 C26            1.6012     8.6997     0.1955 C.3     
  27 C27            0.0337     8.1727     2.0684 C.3     
  28 C28            0.1333     9.6187     2.5586 C.3     
  29 C29            0.3906    10.5443     1.3679 C.3     
  30 N30           -0.3035     5.6228    -5.2372 N.pl3   
  31 O31           -1.3294     6.2566    -5.4084 O.2     
  32 O32            0.4301     5.3851    -6.1800 O.2     
  33 H33           -0.8597    -0.3836     0.5511 H       
  34 H34           -0.0316    -0.3637    -1.0264 H       
  35 H35            3.4090    -0.1823     0.4218 H       
  36 H36            2.4850    -0.2093    -1.0987 H       
  37 H37            0.2961     4.0475     0.7243 H       
  38 H38            4.3620     1.9633    -0.3105 H       
  39 H39           -1.0996     5.1716    -0.7130 H       
  40 H40           -1.6901     5.9735    -2.9650 H       
  41 H41            1.8662     4.2106    -4.5252 H       
  42 H42            2.4609     3.4159    -2.2717 H       
  43 H43            0.4470    -0.4743     2.6545 H       
  44 H44            2.2246    -0.3936     2.6122 H       
  45 H45            1.2583     1.0403     2.1898 H       
  46 H46            1.3693    -2.3229    -0.4547 H       
  47 H47            2.2894    -2.3566     1.0686 H       
  48 H48            0.5123    -2.4513     1.1001 H       
  49 H49            5.6340     3.6145     0.7266 H       
  50 H50            5.0075     5.1908     0.1870 H       
  51 H51            4.7356     4.6508     1.8612 H       
  52 H52            2.1650     7.8607     2.0979 H       
  53 H53            2.5219    10.2323     1.3974 H       
  54 H54            1.8841    10.8051    -0.1626 H       
  55 H55            2.5346     8.4157    -0.2904 H       
  56 H56            0.7801     8.6131    -0.5161 H       
  57 H57           -0.7874     8.0861     1.3568 H       
  58 H58           -0.1496     7.5133     2.9167 H       
  59 H59           -0.8001     9.9027     3.0446 H       
  60 H60            0.9544     9.7053     3.2702 H       
  61 H61            0.4616    11.5744     1.7171 H       
  62 H62           -0.4305    10.4577     0.6562 H       
@<TRIPOS>BOND
   1    1    2 1
   2    1    6 1
   3    1   19 2
   4    2    3 1
   5    2   33 1
   6    2   34 1
   7    3    4 1
   8    3   17 1
   9    3   18 1
  10    4    5 1
  11    4   35 1
  12    4   36 1
  13    5    8 1
  14    5    6 2
  15    6    7 1
  16    7   10 1
  17    7   11 1
  18    7   37 1
  19    8    9 1
  20    8   38 1
  21    9   10 2
  22    9   20 1
  23   10   21 1
  24   11   12 ar
  25   11   16 ar
  26   12   13 ar
  27   12   39 1
  28   13   14 ar
  29   13   40 1
  30   14   15 ar
  31   14   30 1
  32   15   16 ar
  33   15   41 1
  34   16   42 1
  35   17   43 1
  36   17   44 1
  37   17   45 1
  38   18   46 1
  39   18   47 1
  40   18   48 1
  41   20   49 1
  42   20   50 1
  43   20   51 1
  44   21   22 2
  45   21   23 1
  46   23   24 1
  47   24   27 1
  48   24   26 1
  49   24   52 1
  50   25   26 1
  51   25   29 1
  52   25   53 1
  53   25   54 1
  54   26   55 1
  55   26   56 1
  56   27   28 1
  57   27   57 1
  58   27   58 1
  59   28   29 1
  60   28   59 1
  61   28   60 1
  62   29   61 1
  63   29   62 1
  64   30   31 2
  65   30   32 2

#	End of record

