#	Name: ASD01911100
#	Creating user name:	WinNT
#	Creation time:	15. 06. 2019 19:57

#	Modifying user name:	WinNT
#	Modification time:	15. 06. 2019 19:57

#	Program:	/corina/corina34_cracker 3.40 0067  02.08.2006

@<TRIPOS>MOLECULE
ASD01911100
  44   47    0    0    0
SMALL
NO_CHARGES


@<TRIPOS>ATOM
   1 C1            -0.1294     1.0308    -0.1511 C.2     
   2 O2            -1.0992     1.7621    -0.1840 O.2     
   3 N3             1.1115     1.5546    -0.1968 N.am    
   4 C4             2.2924     0.6992    -0.0164 C.3     
   5 C5             3.1623     1.2881     1.0986 C.3     
   6 C6             3.4873     2.7470     0.7698 C.3     
   7 C7             2.1901     3.5552     0.6913 C.3     
   8 C8             1.3094     2.9911    -0.4339 C.3     
   9 O9             5.3583     0.3356     0.2485 O.3     
  10 N10            6.2683    -0.3530     0.6594 N.2     
  11 C11            6.0458    -0.7005     1.8971 C.2     
  12 N12            4.8673    -0.1540     2.2609 N.2     
  13 C13            4.4420     0.4998     1.2075 C.2     
  14 O14            6.8499    -1.4683     2.6737 O.3     
  15 C15            7.9523    -2.0197     2.1013 C.ar    
  16 C16            8.3077    -1.6762     0.8049 C.ar    
  17 C17            9.4287    -2.2381     0.2253 C.ar    
  18 C18           10.1960    -3.1425     0.9359 C.ar    
  19 C19            9.8438    -3.4869     2.2279 C.ar    
  20 C20            8.7275    -2.9228     2.8143 C.ar    
  21 C21           -1.4811    -2.3601     0.7671 C.ar    
  22 C22           -1.3481    -0.9827     0.7051 C.ar    
  23 C23           -0.3110    -0.4365    -0.0546 C.ar    
  24 C24            0.5513    -1.3127    -0.7223 C.ar    
  25 C25            0.3468    -2.6729    -0.6065 C.ar    
  26 N26           -0.6444    -3.1500     0.1209 N.ar    
  27 F27           -2.4763    -2.9018     1.5028 F       
  28 H28            1.9761    -0.3068     0.2596 H       
  29 H29            2.8628     0.6633    -0.9446 H       
  30 H30            2.6230     1.2398     2.0446 H       
  31 H31            4.1266     3.1612     1.5494 H       
  32 H32            4.0047     2.7967    -0.1883 H       
  33 H33            1.6601     3.4856     1.6411 H       
  34 H34            2.4239     4.5987     0.4802 H       
  35 H35            1.8013     3.1383    -1.3954 H       
  36 H36            0.3444     3.4979    -0.4335 H       
  37 H37            7.7082    -0.9703     0.2492 H       
  38 H38            9.7057    -1.9710    -0.7838 H       
  39 H39           11.0719    -3.5810     0.4809 H       
  40 H40           10.4444    -4.1941     2.7805 H       
  41 H41            8.4555    -3.1885     3.8252 H       
  42 H42           -2.0359    -0.3410     1.2357 H       
  43 H43            1.3653    -0.9303    -1.3203 H       
  44 H44            1.0078    -3.3562    -1.1191 H       
@<TRIPOS>BOND
   1    1    2 2
   2    1    3 am
   3    1   23 1
   4    3    4 1
   5    3    8 1
   6    4    5 1
   7    4   28 1
   8    4   29 1
   9    5    6 1
  10    5   13 1
  11    5   30 1
  12    6    7 1
  13    6   31 1
  14    6   32 1
  15    7    8 1
  16    7   33 1
  17    7   34 1
  18    8   35 1
  19    8   36 1
  20    9   10 1
  21    9   13 1
  22   10   11 2
  23   11   12 1
  24   11   14 1
  25   12   13 2
  26   14   15 1
  27   15   16 ar
  28   15   20 ar
  29   16   17 ar
  30   16   37 1
  31   17   18 ar
  32   17   38 1
  33   18   19 ar
  34   18   39 1
  35   19   20 ar
  36   19   40 1
  37   20   41 1
  38   21   22 ar
  39   21   26 ar
  40   21   27 1
  41   22   23 ar
  42   22   42 1
  43   23   24 ar
  44   24   25 ar
  45   24   43 1
  46   25   26 ar
  47   25   44 1

#	End of record

