#	Name: ASD02500266
#	Creating user name:	WinNT
#	Creation time:	15. 06. 2019 20:22

#	Modifying user name:	WinNT
#	Modification time:	15. 06. 2019 20:22

#	Program:	/corina/corina34_cracker 3.40 0067  02.08.2006

@<TRIPOS>MOLECULE
ASD02500266
  66   70    0    0    0
SMALL
NO_CHARGES


@<TRIPOS>ATOM
   1 N1             0.2434    -0.0883     0.7818 N.am    
   2 C2             0.2287    -1.2447    -0.1250 C.3     
   3 C3             0.7460    -0.7976    -1.4979 C.3     
   4 N4             2.0041    -0.0618    -1.3088 N.am    
   5 C5             2.0188     1.0946    -0.4020 C.3     
   6 C6             1.5015     0.6475     0.9708 C.3     
   7 C7            -0.8780     0.2940     1.4241 C.2     
   8 O8            -1.9135    -0.3191     1.2559 O.2     
   9 O9            -0.8510     1.3553     2.2522 O.3     
  10 C10            3.1243    -0.4411    -1.9551 C.2     
  11 C11            4.3468     0.3725    -1.8486 C.ar    
  12 C12            5.5739    -0.2368    -1.5414 C.ar    
  13 C13            6.7169     0.5368    -1.4442 C.ar    
  14 C14            6.6439     1.9091    -1.6507 C.ar    
  15 C15            5.4235     2.5089    -1.9549 C.ar    
  16 C16            4.2908     1.7540    -2.0588 C.ar    
  17 O17            3.1254    -1.4554    -2.6263 O.2     
  18 S18            8.1300     3.8156    -2.7165 S.o2    
  19 O19            6.9600     4.6100    -2.8558 O.2     
  20 O20            9.4032     4.3572    -2.3930 O.2     
  21 N21            7.7927     2.6866    -1.5529 N.am    
  22 N22           10.2795     1.8403    -3.4249 N.ar    
  23 C23           11.2786     1.0053    -3.5762 C.ar    
  24 C24           11.4734     0.3026    -4.7635 C.ar    
  25 C25           10.6102     0.4756    -5.8076 C.ar    
  26 C26            9.5382     1.3729    -5.6413 C.ar    
  27 C27            8.6109     1.6028    -6.6700 C.ar    
  28 C28            7.5877     2.4788    -6.4702 C.ar    
  29 C29            7.4479     3.1501    -5.2575 C.ar    
  30 C30            8.3291     2.9517    -4.2393 C.ar    
  31 C31            9.3988     2.0555    -4.4073 C.ar    
  32 O32            5.6385    -1.5769    -1.3405 O.3     
  33 C33            6.9213    -2.1255    -1.0318 C.3     
  34 O34           -2.7692     1.9450     5.2043 O.3     
  35 C35           -2.2148     1.0036     4.2779 C.3     
  36 C36           -2.0958     1.7099     2.9102 C.3     
  37 C37           -2.1006     3.2099     3.3124 C.3     
  38 C38           -3.0526     3.1837     4.5346 C.3     
  39 H39            0.8739    -2.0287     0.2714 H       
  40 H40           -0.7899    -1.6202    -0.2225 H       
  41 H41            0.9241    -1.6718    -2.1242 H       
  42 H42            0.0102    -0.1484    -1.9724 H       
  43 H43            3.0374     1.4701    -0.3046 H       
  44 H44            1.3737     1.8786    -0.7985 H       
  45 H45            1.3234     1.5217     1.5971 H       
  46 H46            2.2373    -0.0018     1.4453 H       
  47 H47            7.6641     0.0750    -1.2079 H       
  48 H48            5.3742     3.5760    -2.1137 H       
  49 H49            3.3492     2.2251    -2.2993 H       
  50 H50            8.3966     2.5675    -0.8032 H       
  51 H51           11.9692     0.8584    -2.7590 H       
  52 H52           12.3066    -0.3781    -4.8581 H       
  53 H53           10.7464    -0.0606    -6.7351 H       
  54 H54            8.7087     1.0881    -7.6144 H       
  55 H55            6.8748     2.6551    -7.2621 H       
  56 H56            6.6282     3.8405    -5.1238 H       
  57 H57            7.6115    -1.9184    -1.8497 H       
  58 H58            7.2987    -1.6734    -0.1147 H       
  59 H59            6.8323    -3.2033    -0.8957 H       
  60 H60           -1.2287     0.6872     4.6177 H       
  61 H61           -2.8725     0.1387     4.1914 H       
  62 H62           -2.9494     1.4725     2.2754 H       
  63 H63           -1.1030     3.5431     3.5986 H       
  64 H64           -2.5053     3.8298     2.5124 H       
  65 H65           -4.0915     3.2068     4.2054 H       
  66 H66           -2.8450     4.0264     5.1940 H       
@<TRIPOS>BOND
   1    1    2 1
   2    1    6 1
   3    1    7 am
   4    2    3 1
   5    2   39 1
   6    2   40 1
   7    3    4 1
   8    3   41 1
   9    3   42 1
  10    4    5 1
  11    4   10 am
  12    5    6 1
  13    5   43 1
  14    5   44 1
  15    6   45 1
  16    6   46 1
  17    7    8 2
  18    7    9 1
  19    9   36 1
  20   10   11 1
  21   10   17 2
  22   11   12 ar
  23   11   16 ar
  24   12   13 ar
  25   12   32 1
  26   13   14 ar
  27   13   47 1
  28   14   15 ar
  29   14   21 1
  30   15   16 ar
  31   15   48 1
  32   16   49 1
  33   18   19 2
  34   18   20 2
  35   18   21 am
  36   18   30 1
  37   21   50 1
  38   22   23 ar
  39   22   31 ar
  40   23   24 ar
  41   23   51 1
  42   24   25 ar
  43   24   52 1
  44   25   26 ar
  45   25   53 1
  46   26   27 ar
  47   26   31 ar
  48   27   28 ar
  49   27   54 1
  50   28   29 ar
  51   28   55 1
  52   29   30 ar
  53   29   56 1
  54   30   31 ar
  55   32   33 1
  56   33   57 1
  57   33   58 1
  58   33   59 1
  59   34   35 1
  60   34   38 1
  61   35   36 1
  62   35   60 1
  63   35   61 1
  64   36   37 1
  65   36   62 1
  66   37   38 1
  67   37   63 1
  68   37   64 1
  69   38   65 1
  70   38   66 1

#	End of record

