#	Name: ASD05660002
#	Creating user name:	WinNT
#	Creation time:	15. 06. 2019 21:01

#	Modifying user name:	WinNT
#	Modification time:	15. 06. 2019 21:01

#	Program:	/corina/corina34_cracker 3.40 0067  02.08.2006

@<TRIPOS>MOLECULE
ASD05660002
  27   31    0    0    0
SMALL
NO_CHARGES


@<TRIPOS>ATOM
   1 C1            -0.0191     1.5587     0.0106 C.3     
   2 C2             0.0021    -0.0041     0.0020 C.3     
   3 C3             1.4641     1.9141    -0.0016 C.3     
   4 C4             1.4073    -0.3024     0.5552 C.3     
   5 C5             2.1093    -0.1811    -0.8484 C.2     
   6 C6             2.0799     1.1038    -1.1761 C.2     
   7 Cl7            1.9236     3.6563     0.0537 Cl      
   8 C8             2.1152     0.9805     1.0848 C.3     
   9 Cl9            3.9108     0.8503     0.7422 Cl      
  10 Cl10           1.8857     1.5619     2.7584 Cl      
  11 Cl11           2.6340     1.7878    -2.6697 Cl      
  12 Cl12           2.7722    -1.4972    -1.7453 Cl      
  13 C13           -0.8712     1.8333     1.2540 C.3     
  14 C14           -1.2426    -0.4211     0.7921 C.3     
  15 C15           -2.0930     0.9160     0.7971 C.3     
  16 C16           -0.8792    -0.4030     2.3050 C.3     
  17 C17           -0.4629     1.0801     2.5296 C.3     
  18 O18            0.4367    -0.0131     2.6180 O.3     
  19 H19           -0.5337     1.9327    -0.9116 H       
  20 H20           -0.0767    -0.3669    -1.0586 H       
  21 H21            1.5880    -1.2449     1.0560 H       
  22 H22           -1.1676     2.8872     1.4041 H       
  23 H23           -1.7855    -1.3041     0.4461 H       
  24 H24           -2.8707     0.8974     1.5487 H       
  25 H25           -2.4342     1.1822    -0.1938 H       
  26 H26           -1.5117    -0.9441     3.0042 H       
  27 H27           -0.7274     1.5844     3.4892 H       
@<TRIPOS>BOND
   1    1    2 1
   2    1    3 1
   3    1   13 1
   4    1   19 1
   5    2    4 1
   6    2   14 1
   7    2   20 1
   8    3    6 1
   9    3    7 1
  10    3    8 1
  11    4    5 1
  12    4    8 1
  13    4   21 1
  14    5   12 1
  15    5    6 2
  16    6   11 1
  17    8    9 1
  18    8   10 1
  19   13   15 1
  20   13   17 1
  21   13   22 1
  22   14   15 1
  23   14   16 1
  24   14   23 1
  25   15   24 1
  26   15   25 1
  27   16   17 1
  28   16   18 1
  29   16   26 1
  30   17   18 1
  31   17   27 1

#	End of record

