#	Name: ASD03740262
#	Creating user name:	WinNT
#	Creation time:	15. 06. 2019 20:47

#	Modifying user name:	WinNT
#	Modification time:	15. 06. 2019 20:47

#	Program:	/corina/corina34_cracker 3.40 0067  02.08.2006

@<TRIPOS>MOLECULE
ASD03740262
  59   63    0    0    0
SMALL
NO_CHARGES


@<TRIPOS>ATOM
   1 C1             2.4082     5.0396    -1.4808 C.ar    
   2 C2             0.0150     4.9672    -1.4189 C.ar    
   3 C3             6.3445     5.3250     6.1510 C.ar    
   4 C4             7.4012     6.0000     6.7219 C.ar    
   5 C5             2.3545     6.0561    -2.4156 C.ar    
   6 C6            -0.0412     5.9838    -2.3534 C.ar    
   7 C7             6.7279     8.0288     5.6144 C.ar    
   8 C8             1.2390     4.4956    -0.9825 C.ar    
   9 C9             5.4627     5.9967     5.2975 C.ar    
  10 C10            7.6026     7.3498     6.4584 C.ar    
  11 C11            1.1291     6.5295    -2.8531 C.ar    
  12 C12            5.6733     7.3593     5.0501 C.ar    
  13 C13            2.5511     4.8783     3.3271 C.2     
  14 C14            1.4886     4.6288     4.1746 C.2     
  15 C15            3.6657     5.7406     3.7539 C.2     
  16 C16            2.5494     4.2576     1.9867 C.2     
  17 C17           -1.9665     3.6235     3.0731 C.3     
  18 C18           -0.9657     3.8456     4.2358 C.3     
  19 C19           -1.1148     3.5161     1.7774 C.3     
  20 C20            0.4150     3.7624     3.5972 C.3     
  21 C21            0.1647     4.2675     2.1490 C.3     
  22 C22           10.6509     7.2228     5.3049 C.3     
  23 C23            1.2989     3.3873     0.0368 C.3     
  24 N24            4.4191     5.3360     4.7294 N.2     
  25 N25            3.8570     6.9434     3.0936 N.am    
  26 N26            1.3624     3.9639     1.3821 N.am    
  27 N27            8.6812     8.0243     7.0398 N.am    
  28 O28            3.6000     4.0103     1.4254 O.2     
  29 O29            3.4855     8.6938     4.8247 O.2     
  30 O30            5.2782     8.9877     3.0981 O.2     
  31 O31            9.9617     6.0291     7.5894 O.2     
  32 O32           11.0007     8.2697     7.7340 O.2     
  33 O33            1.4251     5.1263     5.4221 O.3     
  34 S34            4.5199     8.1860     3.9933 S.o2    
  35 S35           10.1831     7.3268     7.0545 S.o2    
  36 F36            1.0754     7.5235    -3.7665 F       
  37 H37            3.3639     4.6671    -1.1427 H       
  38 H38           -0.8977     4.5416    -1.0287 H       
  39 H39            6.1993     4.2752     6.3590 H       
  40 H40            8.0786     5.4759     7.3799 H       
  41 H41            3.2680     6.4812    -2.8044 H       
  42 H42           -0.9975     6.3519    -2.6944 H       
  43 H43            6.8789     9.0778     5.4062 H       
  44 H44           -2.5251     2.7010     3.2312 H       
  45 H45           -2.6511     4.4687     3.0020 H       
  46 H46           -1.1171     4.8284     4.6822 H       
  47 H47           -1.0817     3.0658     4.9885 H       
  48 H48           -0.8966     2.4740     1.5440 H       
  49 H49           -1.6193     4.0024     0.9424 H       
  50 H50            0.7496     2.7252     3.5756 H       
  51 H51           -0.0247     5.3408     2.1577 H       
  52 H52           10.6713     8.2239     4.8741 H       
  53 H53           11.6388     6.7702     5.2192 H       
  54 H54            9.9238     6.6119     4.7701 H       
  55 H55            0.4081     2.7651    -0.0501 H       
  56 H56            2.1858     2.7787    -0.1398 H       
  57 H57            3.6196     7.0580     2.1601 H       
  58 H58            8.5495     8.9005     7.4344 H       
  59 H59            2.1967     5.6151     5.7396 H       
@<TRIPOS>BOND
   1    1    5 ar
   2    1    8 ar
   3    1   37 1
   4    2    6 ar
   5    2    8 ar
   6    2   38 1
   7    3    4 ar
   8    3    9 ar
   9    3   39 1
  10    4   10 ar
  11    4   40 1
  12    5   11 ar
  13    5   41 1
  14    6   11 ar
  15    6   42 1
  16    7   10 ar
  17    7   12 ar
  18    7   43 1
  19    8   23 1
  20    9   12 ar
  21    9   24 1
  22   10   27 1
  23   11   36 1
  24   12   34 1
  25   13   14 2
  26   13   15 1
  27   13   16 1
  28   14   20 1
  29   14   33 1
  30   15   24 2
  31   15   25 1
  32   16   26 am
  33   16   28 2
  34   17   18 1
  35   17   19 1
  36   17   44 1
  37   17   45 1
  38   18   20 1
  39   18   46 1
  40   18   47 1
  41   19   21 1
  42   19   48 1
  43   19   49 1
  44   20   21 1
  45   20   50 1
  46   21   26 1
  47   21   51 1
  48   22   35 1
  49   22   52 1
  50   22   53 1
  51   22   54 1
  52   23   26 1
  53   23   55 1
  54   23   56 1
  55   25   34 am
  56   25   57 1
  57   27   35 am
  58   27   58 1
  59   29   34 2
  60   30   34 2
  61   31   35 2
  62   32   35 2
  63   33   59 1

#	End of record

