#	Name: ASD01816010
#	Creating user name:	WinNT
#	Creation time:	15. 06. 2019 19:34

#	Modifying user name:	WinNT
#	Modification time:	15. 06. 2019 19:34

#	Program:	/corina/corina34_cracker 3.40 0067  02.08.2006

@<TRIPOS>MOLECULE
ASD01816010
  40   44    0    0    0
SMALL
NO_CHARGES


@<TRIPOS>ATOM
   1 C1             0.3077     1.3823    -1.5322 C.ar    
   2 C2             0.3230    -0.0030    -1.5212 C.ar    
   3 C3             1.4122    -0.6901    -1.0266 C.ar    
   4 C4             2.5095     0.0063    -0.5331 C.ar    
   5 C5             2.4912     1.4109    -0.5460 C.ar    
   6 C6             1.3868     2.0923    -1.0469 C.ar    
   7 N7             3.6066    -0.6779    -0.0345 N.pl3   
   8 C8             4.6944    -0.0575     0.4555 C.2     
   9 C9             4.7885     1.3114     0.4935 C.2     
  10 C10            3.6659     2.1304    -0.0176 C.2     
  11 C11            5.7892     2.2750     0.9422 C.2     
  12 N12            5.2686     3.4977     0.7017 N.am    
  13 N13            3.9999     3.3806     0.1284 N.2     
  14 C14            5.9094     4.7103     0.9862 C.ar    
  15 O15            6.8769     2.0257     1.4359 O.2     
  16 C16            3.5811    -2.0769    -0.0408 C.ar    
  17 C17            6.8032     5.2557     0.0744 C.ar    
  18 C18            7.4337     6.4516     0.3577 C.ar    
  19 C19            7.1765     7.1066     1.5482 C.ar    
  20 C20            6.2876     6.5675     2.4598 C.ar    
  21 C21            5.6475     5.3737     2.1801 C.ar    
  22 F22            4.7786     4.8470     3.0704 F       
  23 C23            4.0642    -2.7858    -1.1335 C.ar    
  24 C24            3.0763    -2.7795     1.0507 C.ar    
  25 C25            3.0722    -4.1638     0.9974 C.ar    
  26 C26            3.5651    -4.7977    -0.1279 C.ar    
  27 N27            4.0417    -4.1033    -1.1430 N.ar    
  28 H28           -0.5496     1.9081    -1.9259 H       
  29 H29           -0.5262    -0.5503    -1.9031 H       
  30 H30            1.4124    -1.7701    -1.0226 H       
  31 H31            1.3743     3.1722    -1.0565 H       
  32 H32            5.5151    -0.6517     0.8292 H       
  33 H33            7.0057     4.7451    -0.8555 H       
  34 H34            8.1289     6.8757    -0.3517 H       
  35 H35            7.6715     8.0413     1.7666 H       
  36 H36            6.0893     7.0814     3.3888 H       
  37 H37            4.4617    -2.2517    -1.9839 H       
  38 H38            2.6978    -2.2580     1.9174 H       
  39 H39            2.6887    -4.7412     1.8256 H       
  40 H40            3.5642    -5.8767    -0.1746 H       
@<TRIPOS>BOND
   1    1    2 ar
   2    1    6 ar
   3    1   28 1
   4    2    3 ar
   5    2   29 1
   6    3    4 ar
   7    3   30 1
   8    4    5 ar
   9    4    7 1
  10    5    6 ar
  11    5   10 1
  12    6   31 1
  13    7    8 1
  14    7   16 1
  15    8    9 2
  16    8   32 1
  17    9   10 1
  18    9   11 1
  19   10   13 2
  20   11   12 am
  21   11   15 2
  22   12   13 1
  23   12   14 1
  24   14   17 ar
  25   14   21 ar
  26   16   23 ar
  27   16   24 ar
  28   17   18 ar
  29   17   33 1
  30   18   19 ar
  31   18   34 1
  32   19   20 ar
  33   19   35 1
  34   20   21 ar
  35   20   36 1
  36   21   22 1
  37   23   27 ar
  38   23   37 1
  39   24   25 ar
  40   24   38 1
  41   25   26 ar
  42   25   39 1
  43   26   27 ar
  44   26   40 1

#	End of record

