#	Name: ASD01915161
#	Creating user name:	WinNT
#	Creation time:	15. 06. 2019 20:04

#	Modifying user name:	WinNT
#	Modification time:	15. 06. 2019 20:04

#	Program:	/corina/corina34_cracker 3.40 0067  02.08.2006

@<TRIPOS>MOLECULE
ASD01915161
  25   26    0    0    0
SMALL
NO_CHARGES


@<TRIPOS>ATOM
   1 C1            -0.0167     1.3833     0.0096 C.ar    
   2 C2             0.0021    -0.0041     0.0020 C.ar    
   3 N3             1.1636    -0.6336    -0.0125 N.ar    
   4 C4             2.3049     0.0478    -0.0197 C.ar    
   5 N5             2.3201     1.3769    -0.0127 N.ar    
   6 C6             1.1920     2.0645     0.0018 C.ar    
   7 C7             3.5461    -0.6662    -0.0349 C.1     
   8 C8             4.5637    -1.2516    -0.0474 C.1     
   9 C9             5.8049    -1.9656    -0.0626 C.ar    
  10 C10            7.0159    -1.2684    -0.0704 C.ar    
  11 C11            8.2075    -1.9630    -0.0845 C.ar    
  12 C12            8.2057    -3.3466    -0.0915 C.ar    
  13 C13            7.0102    -4.0440    -0.0838 C.ar    
  14 C14            5.8111    -3.3633    -0.0638 C.ar    
  15 C15            7.0190    -5.5509    -0.0920 C.3     
  16 H16           -0.9529     1.9218     0.0170 H       
  17 H17           -0.9221    -0.5629     0.0082 H       
  18 H18            1.2105     3.1443     0.0070 H       
  19 H19            7.0188    -0.1884    -0.0657 H       
  20 H20            9.1442    -1.4255    -0.0906 H       
  21 H21            9.1418    -3.8851    -0.1033 H       
  22 H22            4.8790    -3.9088    -0.0575 H       
  23 H23            7.0309    -5.9197     0.9337 H       
  24 H24            6.1263    -5.9168    -0.5993 H       
  25 H25            7.9061    -5.9062    -0.6162 H       
@<TRIPOS>BOND
   1    1    2 ar
   2    1    6 ar
   3    1   16 1
   4    2    3 ar
   5    2   17 1
   6    3    4 ar
   7    4    5 ar
   8    4    7 1
   9    5    6 ar
  10    6   18 1
  11    7    8 3
  12    8    9 1
  13    9   10 ar
  14    9   14 ar
  15   10   11 ar
  16   10   19 1
  17   11   12 ar
  18   11   20 1
  19   12   13 ar
  20   12   21 1
  21   13   14 ar
  22   13   15 1
  23   14   22 1
  24   15   23 1
  25   15   24 1
  26   15   25 1

#	End of record

