#	Name: ASD03430009
#	Creating user name:	WinNT
#	Creation time:	15. 06. 2019 20:40

#	Modifying user name:	WinNT
#	Modification time:	15. 06. 2019 20:40

#	Program:	/corina/corina34_cracker 3.40 0067  02.08.2006

@<TRIPOS>MOLECULE
ASD03430009
  53   57    0    0    0
SMALL
NO_CHARGES


@<TRIPOS>ATOM
   1 C1            -0.0169     1.3916     0.0097 C.ar    
   2 C2             0.0021    -0.0041     0.0020 C.ar    
   3 C3             1.2005    -0.6770    -0.0143 C.ar    
   4 C4             2.4100     0.0182    -0.0148 C.ar    
   5 C5             2.3932     1.4104    -0.0106 C.ar    
   6 C6             1.1939     2.0965     0.0019 C.ar    
   7 O7             3.4697    -0.8381    -0.0073 O.3     
   8 C8             1.5493    -2.1413    -0.0464 C.3     
   9 C9             3.0329    -2.1412    -0.4390 C.3     
  10 C10            0.4257    -3.8471     1.0249 C.ar    
  11 C11            1.3206    -2.8104     1.2765 C.ar    
  12 C12            0.7093    -2.9047    -1.0291 C.2     
  13 N13            0.0875    -3.8752    -0.3302 N.am    
  14 O14            0.6093    -2.6899    -2.2187 O.2     
  15 C15            1.7978    -2.5898     2.5491 C.ar    
  16 C16            1.3884    -3.4004     3.5928 C.ar    
  17 C17            0.4985    -4.4320     3.3549 C.ar    
  18 C18            0.0185    -4.6579     2.0817 C.ar    
  19 C19           -0.8350    -4.8468    -0.9228 C.3     
  20 C20           -2.2391    -4.3018    -0.8727 C.ar    
  21 C21           -1.3029     2.1195     0.0198 C.2     
  22 O22            1.1888     3.4541     0.0067 O.3     
  23 N23           -2.4962     1.4168     0.0216 N.pl3   
  24 N24           -1.3140     3.4215     0.0269 N.2     
  25 C25           -2.7242    -3.5466    -1.9244 C.ar    
  26 C26           -4.0110    -3.0459    -1.8808 C.ar    
  27 C27           -4.8166    -3.3013    -0.7806 C.ar    
  28 C28           -4.3274    -4.0593     0.2733 C.ar    
  29 C29           -3.0419    -4.5625     0.2224 C.ar    
  30 O30           -2.5463     4.1189     0.0365 O.3     
  31 O31           -6.0826    -2.8094    -0.7352 O.3     
  32 C32           -6.8549    -3.1121     0.4284 C.3     
  33 H33           -0.9262    -0.5560     0.0093 H       
  34 H34            3.3241     1.9579    -0.0169 H       
  35 H35            3.1480    -2.2504    -1.5174 H       
  36 H36            3.5735    -2.9257     0.0906 H       
  37 H37            2.4920    -1.7831     2.7328 H       
  38 H38            1.7632    -3.2283     4.5910 H       
  39 H39            0.1780    -5.0640     4.1700 H       
  40 H40           -0.6761    -5.4655     1.9038 H       
  41 H41           -0.5531    -5.0299    -1.9597 H       
  42 H42           -0.7876    -5.7810    -0.3631 H       
  43 H43            1.1948     3.8443     0.8915 H       
  44 H44           -2.4879     0.4469     0.0163 H       
  45 H45           -3.3404     1.8946     0.0282 H       
  46 H46           -2.0965    -3.3478    -2.7805 H       
  47 H47           -4.3893    -2.4557    -2.7024 H       
  48 H48           -4.9527    -4.2595     1.1309 H       
  49 H49           -2.6606    -5.1527     1.0426 H       
  50 H50           -2.4535     5.0815     0.0413 H       
  51 H51           -6.9569    -4.1929     0.5257 H       
  52 H52           -6.3540    -2.7135     1.3107 H       
  53 H53           -7.8427    -2.6607     0.3364 H       
@<TRIPOS>BOND
   1    1    2 ar
   2    1    6 ar
   3    1   21 1
   4    2    3 ar
   5    2   33 1
   6    3    4 ar
   7    3    8 1
   8    4    5 ar
   9    4    7 1
  10    5    6 ar
  11    5   34 1
  12    6   22 1
  13    7    9 1
  14    8    9 1
  15    8   11 1
  16    8   12 1
  17    9   35 1
  18    9   36 1
  19   10   11 ar
  20   10   13 1
  21   10   18 ar
  22   11   15 ar
  23   12   13 am
  24   12   14 2
  25   13   19 1
  26   15   16 ar
  27   15   37 1
  28   16   17 ar
  29   16   38 1
  30   17   18 ar
  31   17   39 1
  32   18   40 1
  33   19   20 1
  34   19   41 1
  35   19   42 1
  36   20   25 ar
  37   20   29 ar
  38   21   23 1
  39   21   24 2
  40   22   43 1
  41   23   44 1
  42   23   45 1
  43   24   30 1
  44   25   26 ar
  45   25   46 1
  46   26   27 ar
  47   26   47 1
  48   27   28 ar
  49   27   31 1
  50   28   29 ar
  51   28   48 1
  52   29   49 1
  53   30   50 1
  54   31   32 1
  55   32   51 1
  56   32   52 1
  57   32   53 1

#	End of record

