#	Name: ASD00122020
#	Creating user name:	WinNT
#	Creation time:	15. 06. 2019 18:31

#	Modifying user name:	WinNT
#	Modification time:	15. 06. 2019 18:31

#	Program:	/corina/corina34_cracker 3.40 0067  02.08.2006

@<TRIPOS>MOLECULE
ASD00122020
  39   39    0    0    0
SMALL
NO_CHARGES


@<TRIPOS>ATOM
   1 C1            -0.0181     1.3884    -0.0250 C.ar    
   2 C2             0.0017    -0.0035    -0.0054 C.ar    
   3 C3             1.2155    -0.6853    -0.0005 C.ar    
   4 C4             2.3998     0.0152    -0.0149 C.ar    
   5 C5             2.3833     1.4129    -0.0350 C.ar    
   6 C6             1.1628     2.0946    -0.0399 C.ar    
   7 C7             3.6512     2.1669    -0.0499 C.2     
   8 N8             3.6336     3.5145    -0.0693 N.am    
   9 O9             4.7120     1.5727    -0.0448 O.2     
  10 C10            4.8927     4.2633    -0.0842 C.3     
  11 C11            5.3906     4.3952    -1.5249 C.3     
  12 C12            4.6647     5.6562     0.5062 C.3     
  13 C13            4.2871     5.5285     1.9834 C.3     
  14 C14            5.7372     3.0097    -2.0736 C.3     
  15 N15           -1.1934    -0.7142     0.0096 N.pl3   
  16 C16           -2.4675    -0.0022     0.1361 C.3     
  17 C17           -1.1783    -2.1749    -0.1011 C.3     
  18 H18           -0.9613     1.9144    -0.0329 H       
  19 H19            1.2276    -1.7651     0.0150 H       
  20 H20            3.3411    -0.5143    -0.0103 H       
  21 H21            1.1468     3.1744    -0.0558 H       
  22 H22            2.7874     3.9885    -0.0734 H       
  23 H23            5.6372     3.7340     0.5105 H       
  24 H24            4.6104     4.8446    -2.1392 H       
  25 H25            6.2787     5.0269    -1.5460 H       
  26 H26            5.5781     6.2439     0.4141 H       
  27 H27            3.8578     6.1519    -0.0335 H       
  28 H28            5.0940     5.0328     2.5231 H       
  29 H29            4.1246     6.5209     2.4039 H       
  30 H30            3.3737     4.9409     2.0754 H       
  31 H31            6.0919     3.1036    -3.0999 H       
  32 H32            6.5174     2.5603    -1.4592 H       
  33 H33            4.8492     2.3780    -2.0525 H       
  34 H34           -2.2763     1.0581     0.3013 H       
  35 H35           -3.0468    -0.1289    -0.7784 H       
  36 H36           -3.0272    -0.4062     0.9797 H       
  37 H37           -1.1160    -2.6141     0.8945 H       
  38 H38           -2.0924    -2.5116    -0.5902 H       
  39 H39           -0.3154    -2.4858    -0.6901 H       
@<TRIPOS>BOND
   1    1    2 ar
   2    1    6 ar
   3    1   18 1
   4    2    3 ar
   5    2   15 1
   6    3    4 ar
   7    3   19 1
   8    4    5 ar
   9    4   20 1
  10    5    6 ar
  11    5    7 1
  12    6   21 1
  13    7    8 am
  14    7    9 2
  15    8   10 1
  16    8   22 1
  17   10   11 1
  18   10   12 1
  19   10   23 1
  20   11   14 1
  21   11   24 1
  22   11   25 1
  23   12   13 1
  24   12   26 1
  25   12   27 1
  26   13   28 1
  27   13   29 1
  28   13   30 1
  29   14   31 1
  30   14   32 1
  31   14   33 1
  32   15   16 1
  33   15   17 1
  34   16   34 1
  35   16   35 1
  36   16   36 1
  37   17   37 1
  38   17   38 1
  39   17   39 1

#	End of record

