#	Name: ASD01150426
#	Creating user name:	WinNT
#	Creation time:	15. 06. 2019 19:04

#	Modifying user name:	WinNT
#	Modification time:	15. 06. 2019 19:04

#	Program:	/corina/corina34_cracker 3.40 0067  02.08.2006

@<TRIPOS>MOLECULE
ASD01150426
  47   49    0    0    0
SMALL
NO_CHARGES


@<TRIPOS>ATOM
   1 C1             2.0712     1.2028     0.9471 C.ar    
   2 C2             2.0527    -0.1531     0.6844 C.ar    
   3 C3             1.2111    -0.6603    -0.2873 C.ar    
   4 C4             0.3810     0.1925    -1.0035 C.ar    
   5 C5             0.3969     1.5551    -0.7422 C.ar    
   6 C6             1.2429     2.0614     0.2343 C.ar    
   7 N7             1.2618     3.4348     0.5012 N.am    
   8 C8             0.1022     4.0902     0.6851 C.2     
   9 N9             0.0834     5.4110     0.9440 N.am    
  10 C10            1.2404     6.1006     1.0230 C.2     
  11 C11            2.5122     5.3896     0.8229 C.2     
  12 N12            2.4879     4.1058     0.5787 N.2     
  13 O13            1.2317     7.2950     1.2564 O.2     
  14 C14           -1.1944     6.1004     1.1397 C.3     
  15 O15           -0.9473     3.4795     0.6159 O.2     
  16 C16           -1.5660     6.0646     2.5998 C.ar    
  17 C17           -1.1533     7.0796     3.4428 C.ar    
  18 C18           -1.4938     7.0474     4.7819 C.ar    
  19 C19           -2.2478     5.9991     5.2787 C.ar    
  20 C20           -2.6605     4.9836     4.4345 C.ar    
  21 C21           -2.3241     5.0198     3.0944 C.ar    
  22 N22           -0.4703    -0.3220    -1.9879 N.am    
  23 C23           -1.0445    -1.5295    -1.8184 C.2     
  24 O24           -0.7569    -2.2090    -0.8520 O.2     
  25 N25           -1.9375    -1.9837    -2.7199 N.am    
  26 O26            3.6939     6.0557     0.8957 O.3     
  27 C27            4.8834     5.2913     0.6891 C.3     
  28 Cl28          -2.6754     5.9576     6.9607 Cl      
  29 C29           -2.5616    -3.2962    -2.5356 C.3     
  30 H30            2.7268     1.5955     1.7102 H       
  31 H31            2.6976    -0.8184     1.2393 H       
  32 H32            1.1990    -1.7210    -0.4903 H       
  33 H33           -0.2473     2.2203    -1.2980 H       
  34 H34           -1.1020     7.1363     0.8136 H       
  35 H35           -1.9686     5.6032     0.5555 H       
  36 H36           -0.5645     7.8977     3.0550 H       
  37 H37           -1.1711     7.8402     5.4405 H       
  38 H38           -3.2490     4.1650     4.8217 H       
  39 H39           -2.6462     4.2272     2.4353 H       
  40 H40           -0.6472     0.1905    -2.7923 H       
  41 H41           -2.1669    -1.4415    -3.4908 H       
  42 H42            5.7532     5.9426     0.7741 H       
  43 H43            4.9443     4.5039     1.4404 H       
  44 H44            4.8599     4.8442    -0.3047 H       
  45 H45           -3.2498    -3.4900    -3.3583 H       
  46 H46           -1.7902    -4.0661    -2.5181 H       
  47 H47           -3.1091    -3.3090    -1.5932 H       
@<TRIPOS>BOND
   1    1    2 ar
   2    1    6 ar
   3    1   30 1
   4    2    3 ar
   5    2   31 1
   6    3    4 ar
   7    3   32 1
   8    4    5 ar
   9    4   22 1
  10    5    6 ar
  11    5   33 1
  12    6    7 1
  13    7    8 am
  14    7   12 1
  15    8    9 am
  16    8   15 2
  17    9   10 am
  18    9   14 1
  19   10   11 1
  20   10   13 2
  21   11   12 2
  22   11   26 1
  23   14   16 1
  24   14   34 1
  25   14   35 1
  26   16   17 ar
  27   16   21 ar
  28   17   18 ar
  29   17   36 1
  30   18   19 ar
  31   18   37 1
  32   19   20 ar
  33   19   28 1
  34   20   21 ar
  35   20   38 1
  36   21   39 1
  37   22   23 am
  38   22   40 1
  39   23   24 2
  40   23   25 am
  41   25   29 1
  42   25   41 1
  43   26   27 1
  44   27   42 1
  45   27   43 1
  46   27   44 1
  47   29   45 1
  48   29   46 1
  49   29   47 1

#	End of record

