#	Name: ASD01410031
#	Creating user name:	WinNT
#	Creation time:	15. 06. 2019 19:16

#	Modifying user name:	WinNT
#	Modification time:	15. 06. 2019 19:16

#	Program:	/corina/corina34_cracker 3.40 0067  02.08.2006

@<TRIPOS>MOLECULE
ASD01410031
  37   38    0    0    0
SMALL
NO_CHARGES


@<TRIPOS>ATOM
   1 C1            -0.0268     1.4067    -0.0669 C.ar    
   2 C2            -0.0039     0.0235    -0.0691 C.ar    
   3 C3            -1.1922    -0.6888    -0.0482 C.ar    
   4 C4            -2.4067    -0.0101    -0.0251 C.ar    
   5 C5            -2.4232     1.3753    -0.0230 C.ar    
   6 C6            -1.2346     2.0810    -0.0386 C.ar    
   7 O7            -3.5755    -0.7055    -0.0050 O.3     
   8 C8            -4.7837     0.0571     0.0181 C.3     
   9 C9            -5.9667    -0.8763     0.0381 C.2     
  10 N10           -7.2185    -0.3774     0.0616 N.am    
  11 C11           -8.3117    -1.2349    -0.0332 C.ar    
  12 C12           -8.2377    -2.3750    -0.8216 C.ar    
  13 C13           -9.3226    -3.2237    -0.9143 C.ar    
  14 C14          -10.4912    -2.9462    -0.2239 C.ar    
  15 C15          -10.5834    -1.8191     0.5638 C.ar    
  16 C16           -9.4919    -0.9538     0.6725 C.ar    
  17 C17           -9.5833     0.2531     1.5135 C.2     
  18 O18          -10.7535     0.5819     2.0952 O.3     
  19 O19           -8.6034     0.9515     1.6824 O.2     
  20 O20           -5.7922    -2.0765     0.0330 O.2     
  21 Cl21           1.4627     2.2980    -0.0925 Cl      
  22 O22           -1.1715    -2.0486    -0.0507 O.3     
  23 C23            0.1112    -2.6779    -0.0755 C.3     
  24 H24            0.9400    -0.5010    -0.0874 H       
  25 H25           -3.3648     1.9040    -0.0051 H       
  26 H26           -1.2490     3.1609    -0.0370 H       
  27 H27           -4.8006     0.6842     0.9096 H       
  28 H28           -4.8329     0.6870    -0.8701 H       
  29 H29           -7.3580     0.5789     0.1445 H       
  30 H30           -7.3305    -2.5981    -1.3635 H       
  31 H31           -9.2601    -4.1095    -1.5290 H       
  32 H32          -11.3345    -3.6163    -0.3038 H       
  33 H33          -11.4969    -1.6071     1.0996 H       
  34 H34          -10.7645     1.3824     2.6377 H       
  35 H35           -0.0152    -3.7606    -0.0749 H       
  36 H36            0.6471    -2.3752    -0.9751 H       
  37 H37            0.6801    -2.3780     0.8046 H       
@<TRIPOS>BOND
   1    1    2 ar
   2    1   21 1
   3    1    6 ar
   4    2    3 ar
   5    2   24 1
   6    3    4 ar
   7    3   22 1
   8    4    5 ar
   9    4    7 1
  10    5    6 ar
  11    5   25 1
  12    6   26 1
  13    7    8 1
  14    8    9 1
  15    8   27 1
  16    8   28 1
  17    9   10 am
  18    9   20 2
  19   10   11 1
  20   10   29 1
  21   11   12 ar
  22   11   16 ar
  23   12   13 ar
  24   12   30 1
  25   13   14 ar
  26   13   31 1
  27   14   15 ar
  28   14   32 1
  29   15   16 ar
  30   15   33 1
  31   16   17 1
  32   17   18 1
  33   17   19 2
  34   18   34 1
  35   22   23 1
  36   23   35 1
  37   23   36 1
  38   23   37 1

#	End of record

