#	Name: ASD01913818
#	Creating user name:	WinNT
#	Creation time:	15. 06. 2019 20:02

#	Modifying user name:	WinNT
#	Modification time:	15. 06. 2019 20:02

#	Program:	/corina/corina34_cracker 3.40 0067  02.08.2006

@<TRIPOS>MOLECULE
ASD01913818
  46   49    0    0    0
SMALL
NO_CHARGES


@<TRIPOS>ATOM
   1 C1            -0.0202     1.4274     0.0499 C.ar    
   2 C2             0.0001    -0.0044     0.0301 C.1     
   3 C3             0.0168    -1.1781     0.0139 C.1     
   4 C4             0.0371    -2.6098    -0.0058 C.ar    
   5 C5            -1.1397    -3.3356    -0.2438 C.ar    
   6 C6             0.1560    -5.3344    -0.0280 C.ar    
   7 N7             1.2513    -4.6214     0.1877 N.ar    
   8 C8             1.2299    -3.3049     0.2058 C.ar    
   9 C9            -1.0693    -4.7141    -0.2530 C.ar    
  10 C10            1.1563     2.1430     0.2876 C.ar    
  11 C11            1.1291     3.5218     0.3047 C.ar    
  12 C12           -0.0595     4.1966     0.0876 C.ar    
  13 C13           -1.2285     3.4946    -0.1480 C.ar    
  14 C14           -1.2155     2.1157    -0.1742 C.ar    
  15 N15            0.2331    -6.7250    -0.0369 N.am    
  16 C16           -0.8148    -7.5622    -0.0260 C.2     
  17 N17           -0.4719    -8.8612    -0.0389 N.am    
  18 C18            0.9835    -8.9597    -0.0615 C.3     
  19 C19            1.4789    -7.5117    -0.0664 C.3     
  20 C20            1.5258    -9.7407     1.1390 C.3     
  21 C21            1.8058   -11.1701     0.6347 C.3     
  22 C22            1.3996   -11.1989    -0.8542 C.3     
  23 C23            1.4824    -9.7168    -1.3035 C.3     
  24 C24           -1.4045    -9.9910    -0.0315 C.3     
  25 O25           -1.9690    -7.1807    -0.0056 O.2     
  26 H26           -2.0776    -2.8282    -0.4152 H       
  27 H27            2.1433    -2.7574     0.3856 H       
  28 H28           -1.9555    -5.3048    -0.4326 H       
  29 H29            2.0844     1.6178     0.4579 H       
  30 H30            2.0375     4.0763     0.4883 H       
  31 H31           -0.0748     5.2764     0.1025 H       
  32 H32           -2.1525     4.0279    -0.3158 H       
  33 H33           -2.1286     1.5692    -0.3585 H       
  34 H34            2.0495    -7.3039    -0.9715 H       
  35 H35            2.0772    -7.3074     0.8216 H       
  36 H36            2.4477    -9.2830     1.4979 H       
  37 H37            0.7835    -9.7638     1.9369 H       
  38 H38            2.8660   -11.4013     0.7372 H       
  39 H39            1.2102   -11.8883     1.1983 H       
  40 H40            2.0965   -11.8103    -1.4274 H       
  41 H41            0.3823   -11.5743    -0.9644 H       
  42 H42            0.8283    -9.5343    -2.1561 H       
  43 H43            2.5105    -9.4407    -1.5375 H       
  44 H44           -2.4281    -9.6170    -0.0143 H       
  45 H45           -1.2527   -10.5933    -0.9273 H       
  46 H46           -1.2264   -10.6033     0.8525 H       
@<TRIPOS>BOND
   1    1    2 1
   2    1   10 ar
   3    1   14 ar
   4    2    3 3
   5    3    4 1
   6    4    5 ar
   7    4    8 ar
   8    5    9 ar
   9    5   26 1
  10    6    7 ar
  11    6   15 1
  12    6    9 ar
  13    7    8 ar
  14    8   27 1
  15    9   28 1
  16   10   11 ar
  17   10   29 1
  18   11   12 ar
  19   11   30 1
  20   12   13 ar
  21   12   31 1
  22   13   14 ar
  23   13   32 1
  24   14   33 1
  25   15   16 am
  26   15   19 1
  27   16   17 am
  28   16   25 2
  29   17   18 1
  30   17   24 1
  31   18   19 1
  32   18   20 1
  33   18   23 1
  34   19   34 1
  35   19   35 1
  36   20   21 1
  37   20   36 1
  38   20   37 1
  39   21   22 1
  40   21   38 1
  41   21   39 1
  42   22   23 1
  43   22   40 1
  44   22   41 1
  45   23   42 1
  46   23   43 1
  47   24   44 1
  48   24   45 1
  49   24   46 1

#	End of record

