#	Name: ASD01916132
#	Creating user name:	WinNT
#	Creation time:	15. 06. 2019 20:06

#	Modifying user name:	WinNT
#	Modification time:	15. 06. 2019 20:06

#	Program:	/corina/corina34_cracker 3.40 0067  02.08.2006

@<TRIPOS>MOLECULE
ASD01916132
  44   47    0    0    0
SMALL
NO_CHARGES


@<TRIPOS>ATOM
   1 C1            -0.1156     1.3890     0.0802 C.ar    
   2 C2            -0.0827     0.0061     0.0645 C.ar    
   3 C3            -1.2682    -0.7141     0.0542 C.ar    
   4 C4            -2.4838    -0.0458     0.0598 C.ar    
   5 C5            -2.5126     1.3356     0.0755 C.ar    
   6 C6            -1.3313     2.0529     0.0915 C.ar    
   7 O7            -1.2388    -2.0727     0.0383 O.3     
   8 C8            -2.4977    -2.7488     0.0284 C.3     
   9 C9            -2.2679    -4.2380     0.0113 C.2     
  10 C10           -1.0210    -4.8762     0.0057 C.2     
  11 N11           -3.2001    -5.1586     0.0048 N.2     
  12 N12           -2.5774    -6.4096    -0.0068 N.pl3   
  13 C13           -1.2399    -6.2046    -0.0109 C.2     
  14 C14           -3.2245    -7.7245    -0.0044 C.3     
  15 C15           -2.2219    -8.7819    -0.4792 C.3     
  16 N16           -0.9379    -8.5750     0.2078 N.am    
  17 C17           -0.2150    -7.3137    -0.0368 C.3     
  18 C18           -0.4373    -9.5094     1.0400 C.2     
  19 C19            0.9125    -9.3389     1.6157 C.ar    
  20 O20           -1.0965   -10.4926     1.3170 O.2     
  21 C21            1.9231    -8.7356     0.8647 C.ar    
  22 C22            3.1816    -8.5784     1.4058 C.ar    
  23 C23            3.4456    -9.0182     2.6930 C.ar    
  24 C24            2.4450    -9.6195     3.4453 C.ar    
  25 C25            1.1803    -9.7754     2.9151 C.ar    
  26 F26            1.0380     2.0920     0.0902 F       
  27 F27            4.6807    -8.8619     3.2178 F       
  28 F28            2.7083   -10.0468     4.6996 F       
  29 H29            0.8648    -0.5122     0.0598 H       
  30 H30           -3.4077    -0.6051     0.0514 H       
  31 H31           -3.4593     1.8554     0.0798 H       
  32 H32           -1.3561     3.1326     0.1041 H       
  33 H33           -3.0623    -2.4785     0.9208 H       
  34 H34           -3.0595    -2.4576    -0.8590 H       
  35 H35           -0.0568    -4.3898     0.0133 H       
  36 H36           -3.5564    -7.9650     1.0056 H       
  37 H37           -4.0827    -7.7090    -0.6762 H       
  38 H38           -2.6035    -9.7759    -0.2461 H       
  39 H39           -2.0779    -8.6896    -1.5557 H       
  40 H40            0.2695    -7.3460    -1.0127 H       
  41 H41            0.5290    -7.1541     0.7436 H       
  42 H42            1.7194    -8.3928    -0.1390 H       
  43 H43            3.9634    -8.1117     0.8249 H       
  44 H44            0.4020   -10.2428     3.5002 H       
@<TRIPOS>BOND
   1    1    2 ar
   2    1   26 1
   3    1    6 ar
   4    2    3 ar
   5    2   29 1
   6    3    4 ar
   7    3    7 1
   8    4    5 ar
   9    4   30 1
  10    5    6 ar
  11    5   31 1
  12    6   32 1
  13    7    8 1
  14    8    9 1
  15    8   33 1
  16    8   34 1
  17    9   10 1
  18    9   11 2
  19   10   13 2
  20   10   35 1
  21   11   12 1
  22   12   13 1
  23   12   14 1
  24   13   17 1
  25   14   15 1
  26   14   36 1
  27   14   37 1
  28   15   16 1
  29   15   38 1
  30   15   39 1
  31   16   17 1
  32   16   18 am
  33   17   40 1
  34   17   41 1
  35   18   19 1
  36   18   20 2
  37   19   21 ar
  38   19   25 ar
  39   21   22 ar
  40   21   42 1
  41   22   23 ar
  42   22   43 1
  43   23   24 ar
  44   23   27 1
  45   24   25 ar
  46   24   28 1
  47   25   44 1

#	End of record

