#	Name: ASD01882728
#	Creating user name:	WinNT
#	Creation time:	15. 06. 2019 19:45

#	Modifying user name:	WinNT
#	Modification time:	15. 06. 2019 19:45

#	Program:	/corina/corina34_cracker 3.40 0067  02.08.2006

@<TRIPOS>MOLECULE
ASD01882728
  43   45    0    0    0
SMALL
NO_CHARGES


@<TRIPOS>ATOM
   1 C1            -0.0180     1.4789     0.0102 C.ar    
   2 C2             0.0021    -0.0041     0.0020 C.ar    
   3 N3             1.1656    -0.6422    -0.0070 N.ar    
   4 C4            -1.2008    -0.7070     0.0097 C.ar    
   5 C5            -1.1753    -2.0915     0.0025 C.ar    
   6 C6             1.2295    -1.9623    -0.0140 C.ar    
   7 N7             2.2905    -2.8591    -0.0243 N.am    
   8 C8             0.0584    -2.7281    -0.0122 C.ar    
   9 N9             0.4477    -4.0637    -0.0231 N.am    
  10 C10            1.7935    -4.1098    -0.0284 C.2     
  11 C11            3.7116    -2.5031    -0.0301 C.3     
  12 C12           -0.4513    -5.2204    -0.0202 C.3     
  13 C13           -0.7785    -5.6156    -1.4616 C.3     
  14 C14            0.5136    -5.9757    -2.1976 C.3     
  15 C15           -1.7174    -6.8236    -1.4586 C.3     
  16 C16           -1.4590    -4.4426    -2.1700 C.3     
  17 O17            2.4595    -5.1281    -0.0372 O.2     
  18 C18            1.1531     3.5746     0.0107 C.ar    
  19 C19           -0.0556     4.2472     0.0263 C.ar    
  20 C20           -1.2455     3.5419     0.0393 C.ar    
  21 C21           -1.2328     2.1619     0.0313 C.ar    
  22 C22            1.1778     2.1948     0.0026 C.ar    
  23 H23           -2.1423    -0.1782     0.0216 H       
  24 H24           -2.0924    -2.6619     0.0086 H       
  25 H25            4.0695    -2.4200     0.9961 H       
  26 H26            4.2775    -3.2755    -0.5508 H       
  27 H27            3.8451    -1.5489    -0.5398 H       
  28 H28            0.0335    -6.0561     0.4845 H       
  29 H29           -1.3718    -4.9639     0.5041 H       
  30 H30            0.9984    -6.8114    -1.6929 H       
  31 H31            0.2805    -6.2572    -3.2244 H       
  32 H32            1.1825    -5.1151    -2.1997 H       
  33 H33           -2.6379    -6.5671    -0.9343 H       
  34 H34           -1.9505    -7.1052    -2.4855 H       
  35 H35           -1.2326    -7.6593    -0.9539 H       
  36 H36           -0.7901    -3.5819    -2.1722 H       
  37 H37           -1.6921    -4.7241    -3.1969 H       
  38 H38           -2.3795    -4.1860    -1.6457 H       
  39 H39            2.0791     4.1303     0.0006 H       
  40 H40           -0.0702     5.3271     0.0326 H       
  41 H41           -2.1862     4.0722     0.0517 H       
  42 H42           -2.1624     1.6122     0.0410 H       
  43 H43            2.1221     1.6706    -0.0092 H       
@<TRIPOS>BOND
   1    1    2 1
   2    1   22 ar
   3    1   21 ar
   4    2    4 ar
   5    2    3 ar
   6    3    6 ar
   7    4    5 ar
   8    4   23 1
   9    5    8 ar
  10    5   24 1
  11    6    8 ar
  12    6    7 1
  13    7   10 am
  14    7   11 1
  15    8    9 1
  16    9   10 am
  17    9   12 1
  18   10   17 2
  19   11   25 1
  20   11   26 1
  21   11   27 1
  22   12   13 1
  23   12   28 1
  24   12   29 1
  25   13   14 1
  26   13   15 1
  27   13   16 1
  28   14   30 1
  29   14   31 1
  30   14   32 1
  31   15   33 1
  32   15   34 1
  33   15   35 1
  34   16   36 1
  35   16   37 1
  36   16   38 1
  37   18   19 ar
  38   18   22 ar
  39   18   39 1
  40   19   20 ar
  41   19   40 1
  42   20   21 ar
  43   20   41 1
  44   21   42 1
  45   22   43 1

#	End of record

