#	Name: ASD01815978
#	Creating user name:	WinNT
#	Creation time:	15. 06. 2019 19:34

#	Modifying user name:	WinNT
#	Modification time:	15. 06. 2019 19:34

#	Program:	/corina/corina34_cracker 3.40 0067  02.08.2006

@<TRIPOS>MOLECULE
ASD01815978
  48   53    0    0    0
SMALL
NO_CHARGES


@<TRIPOS>ATOM
   1 C1             0.0561     1.3766     0.7017 C.ar    
   2 C2             0.0739    -0.0087     0.6856 C.ar    
   3 C3             1.2461    -0.6940     0.4419 C.ar    
   4 C4             2.4256     0.0043     0.2091 C.ar    
   5 C5             2.4042     1.4090     0.2261 C.ar    
   6 C6             1.2159     2.0884     0.4731 C.ar    
   7 N7             3.6053    -0.6772    -0.0356 N.pl3   
   8 C8             4.7737    -0.0571    -0.2664 C.2     
   9 C9             4.8751     1.3119    -0.2751 C.2     
  10 C10            3.6669     2.1301    -0.0234 C.2     
  11 C11            5.9507     2.2759    -0.4850 C.2     
  12 N12            5.3899     3.4983    -0.3615 N.am    
  13 N13            4.0253     3.3804    -0.0859 N.2     
  14 C14            6.0782     4.7113    -0.4909 C.ar    
  15 O15            7.1214     2.0274    -0.7233 O.2     
  16 C16            3.5779    -2.1419    -0.0427 C.3     
  17 C17            4.1558    -2.6718    -1.3375 C.ar    
  18 C18            6.2716     5.2712    -1.7467 C.ar    
  19 C19            6.9507     6.4674    -1.8713 C.ar    
  20 C20            7.4390     7.1084    -0.7473 C.ar    
  21 C21            7.2492     6.5552     0.5055 C.ar    
  22 C22            6.5647     5.3607     0.6386 C.ar    
  23 F23            6.3787     4.8201     1.8627 F       
  24 C24            4.4941    -2.7001     1.0669 C.3     
  25 C25            5.8315    -2.9001     0.3228 C.3     
  26 C26            5.4506    -3.1074    -1.1275 C.ar    
  27 C27            6.1797    -3.6352    -2.1802 C.ar    
  28 C28            5.6173    -3.7268    -3.4382 C.ar    
  29 C29            4.3221    -3.2910    -3.6482 C.ar    
  30 C30            3.5932    -2.7654    -2.5996 C.ar    
  31 H31           -0.8692     1.9009     0.8893 H       
  32 H32           -0.8387    -0.5574     0.8660 H       
  33 H33            1.2477    -1.7740     0.4322 H       
  34 H34            1.2010     3.1683     0.4854 H       
  35 H35            5.6570    -0.6509    -0.4496 H       
  36 H36            2.5575    -2.5012     0.0910 H       
  37 H37            5.8915     4.7715    -2.6255 H       
  38 H38            7.1010     6.9028    -2.8482 H       
  39 H39            7.9702     8.0433    -0.8485 H       
  40 H40            7.6321     7.0581     1.3812 H       
  41 H41            4.6054    -1.9790     1.8767 H       
  42 H42            4.1137    -3.6501     1.4421 H       
  43 H43            6.4581    -2.0143     0.4263 H       
  44 H44            6.3503    -3.7784     0.7068 H       
  45 H45            7.1915    -3.9758    -2.0168 H       
  46 H46            6.1887    -4.1381    -4.2571 H       
  47 H47            3.8807    -3.3620    -4.6313 H       
  48 H48            2.5814    -2.4255    -2.7644 H       
@<TRIPOS>BOND
   1    1    2 ar
   2    1    6 ar
   3    1   31 1
   4    2    3 ar
   5    2   32 1
   6    3    4 ar
   7    3   33 1
   8    4    5 ar
   9    4    7 1
  10    5    6 ar
  11    5   10 1
  12    6   34 1
  13    7    8 1
  14    7   16 1
  15    8    9 2
  16    8   35 1
  17    9   10 1
  18    9   11 1
  19   10   13 2
  20   11   12 am
  21   11   15 2
  22   12   13 1
  23   12   14 1
  24   14   18 ar
  25   14   22 ar
  26   16   17 1
  27   16   24 1
  28   16   36 1
  29   17   26 ar
  30   17   30 ar
  31   18   19 ar
  32   18   37 1
  33   19   20 ar
  34   19   38 1
  35   20   21 ar
  36   20   39 1
  37   21   22 ar
  38   21   40 1
  39   22   23 1
  40   24   25 1
  41   24   41 1
  42   24   42 1
  43   25   26 1
  44   25   43 1
  45   25   44 1
  46   26   27 ar
  47   27   28 ar
  48   27   45 1
  49   28   29 ar
  50   28   46 1
  51   29   30 ar
  52   29   47 1
  53   30   48 1

#	End of record

