#	Name: ASD03731598
#	Creating user name:	WinNT
#	Creation time:	15. 06. 2019 20:46

#	Modifying user name:	WinNT
#	Modification time:	15. 06. 2019 20:46

#	Program:	/corina/corina34_cracker 3.40 0067  02.08.2006

@<TRIPOS>MOLECULE
ASD03731598
  40   41    0    0    0
SMALL
NO_CHARGES


@<TRIPOS>ATOM
   1 C1             0.3758     1.0928     1.9806 C.2     
   2 C2             0.2920    -0.2832     1.4529 C.ar    
   3 C3             1.3752    -0.8363     0.7641 C.ar    
   4 C4             1.2920    -2.1240     0.2722 C.ar    
   5 C5             0.1289    -2.8695     0.4634 C.ar    
   6 C6            -0.9469    -2.3196     1.1472 C.ar    
   7 C7            -0.8677    -1.0373     1.6458 C.ar    
   8 O8             1.3878     1.7463     1.8163 O.2     
   9 N9            -0.6715     1.6267     2.6398 N.am    
  10 S10           -0.5775     3.1704     3.2318 S.o2    
  11 O11           -1.8289     3.3767     3.8726 O.2     
  12 O12            0.6359     3.1889     3.9709 O.2     
  13 C13           -0.4391     4.2140     1.7546 C.3     
  14 O14            2.3439    -2.6650    -0.3988 O.3     
  15 C15            3.5030    -1.8445    -0.5580 C.3     
  16 O16            0.0484    -4.1354    -0.0208 O.3     
  17 C17           -1.1390    -4.7870     0.0912 C.ar    
  18 C18           -2.0929    -4.6698    -0.9099 C.ar    
  19 C19           -3.2990    -5.3327    -0.7942 C.ar    
  20 C20           -3.5565    -6.1135     0.3191 C.ar    
  21 C21           -2.6068    -6.2317     1.3182 C.ar    
  22 C22           -1.3968    -5.5748     1.2036 C.ar    
  23 C23           -4.3355    -5.2054    -1.8807 C.3     
  24 F24           -3.8498    -4.3708    -2.8930 F       
  25 F25           -4.6124    -6.4698    -2.4115 F       
  26 F26           -5.5064    -4.6574    -1.3462 F       
  27 Cl27          -5.0735    -6.9453     0.4624 Cl      
  28 H28            2.2751    -0.2577     0.6165 H       
  29 H29           -1.8462    -2.8997     1.2926 H       
  30 H30           -1.7042    -0.6138     2.1819 H       
  31 H31           -1.4804     1.1067     2.7674 H       
  32 H32           -1.3181     4.0722     1.1258 H       
  33 H33           -0.3714     5.2600     2.0537 H       
  34 H34            0.4553     3.9371     1.1965 H       
  35 H35            4.2651    -2.3953    -1.1093 H       
  36 H36            3.2367    -0.9425    -1.1090 H       
  37 H37            3.8913    -1.5699     0.4227 H       
  38 H38           -1.8925    -4.0603    -1.7786 H       
  39 H39           -2.8098    -6.8412     2.1863 H       
  40 H40           -0.6540    -5.6708     1.9817 H       
@<TRIPOS>BOND
   1    1    2 1
   2    1    8 2
   3    1    9 am
   4    2    3 ar
   5    2    7 ar
   6    3    4 ar
   7    3   28 1
   8    4    5 ar
   9    4   14 1
  10    5    6 ar
  11    5   16 1
  12    6    7 ar
  13    6   29 1
  14    7   30 1
  15    9   10 am
  16    9   31 1
  17   10   11 2
  18   10   12 2
  19   10   13 1
  20   13   32 1
  21   13   33 1
  22   13   34 1
  23   14   15 1
  24   15   35 1
  25   15   36 1
  26   15   37 1
  27   16   17 1
  28   17   18 ar
  29   17   22 ar
  30   18   19 ar
  31   18   38 1
  32   19   20 ar
  33   19   23 1
  34   20   21 ar
  35   20   27 1
  36   21   22 ar
  37   21   39 1
  38   22   40 1
  39   23   24 1
  40   23   25 1
  41   23   26 1

#	End of record

