#	Name: ASD01903228
#	Creating user name:	WinNT
#	Creation time:	15. 06. 2019 19:54

#	Modifying user name:	WinNT
#	Modification time:	15. 06. 2019 19:54

#	Program:	/corina/corina34_cracker 3.40 0067  02.08.2006

@<TRIPOS>MOLECULE
ASD01903228
  33   35    0    0    0
SMALL
NO_CHARGES


@<TRIPOS>ATOM
   1 S1            -0.0218     1.7568     0.0117 S.3     
   2 C2             0.0021    -0.0041     0.0020 C.2     
   3 N3             1.2315    -0.4178    -0.0119 N.2     
   4 C4             2.1786     0.5104    -0.0160 C.2     
   5 C5             1.7401     1.7815    -0.0050 C.2     
   6 N6            -1.1192    -0.8214     0.0087 N.pl3   
   7 C7            -2.3862    -0.2596     0.0238 C.ar    
   8 C8             3.6219     0.1700    -0.0311 C.2     
   9 C9             4.2310    -1.1680    -0.0441 C.2     
  10 N10            5.5383    -0.9726    -0.0559 N.2     
  11 N11            5.8063     0.2815    -0.0519 N.pl3   
  12 C12            4.6839     1.0294    -0.0422 C.2     
  13 N13           -3.4459    -1.0546     0.0301 N.ar    
  14 C14           -4.6690    -0.5509     0.0444 C.ar    
  15 C15           -4.8334     0.8252     0.0529 C.ar    
  16 C16           -3.7029     1.6277     0.0460 C.ar    
  17 N17           -2.5086     1.0596     0.0370 N.ar    
  18 C18           -5.8691    -1.4624     0.0509 C.3     
  19 C19            3.5307    -2.4573    -0.0441 C.2     
  20 C20            4.3178    -3.7423    -0.0585 C.3     
  21 O21            2.3181    -2.4888    -0.0324 O.2     
  22 H22            2.3608     2.6653    -0.0065 H       
  23 H23           -1.0163    -1.7859     0.0029 H       
  24 H24            6.7048     0.6469    -0.0587 H       
  25 H25            4.6339     2.1082    -0.0377 H       
  26 H26           -5.8207     1.2629     0.0643 H       
  27 H27           -3.7963     2.7036     0.0523 H       
  28 H28           -6.1486    -1.6877     1.0801 H       
  29 H29           -6.7015    -0.9707    -0.4524 H       
  30 H30           -5.6251    -2.3881    -0.4702 H       
  31 H31            5.3838    -3.5153    -0.0677 H       
  32 H32            4.0781    -4.3252     0.8308 H       
  33 H33            4.0607    -4.3158    -0.9491 H       
@<TRIPOS>BOND
   1    1    2 1
   2    1    5 1
   3    2    3 2
   4    2    6 1
   5    3    4 1
   6    4    5 2
   7    4    8 1
   8    5   22 1
   9    6    7 1
  10    6   23 1
  11    7   13 ar
  12    7   17 ar
  13    8    9 1
  14    8   12 2
  15    9   10 2
  16    9   19 1
  17   10   11 1
  18   11   12 1
  19   11   24 1
  20   12   25 1
  21   13   14 ar
  22   14   15 ar
  23   14   18 1
  24   15   16 ar
  25   15   26 1
  26   16   17 ar
  27   16   27 1
  28   18   28 1
  29   18   29 1
  30   18   30 1
  31   19   20 1
  32   19   21 2
  33   20   31 1
  34   20   32 1
  35   20   33 1

#	End of record

