#	Name: ASD06660097
#	Creating user name:	WinNT
#	Creation time:	15. 06. 2019 21:08

#	Modifying user name:	WinNT
#	Modification time:	15. 06. 2019 21:08

#	Program:	/corina/corina34_cracker 3.40 0067  02.08.2006

@<TRIPOS>MOLECULE
ASD06660097
  80   83    0    0    0
SMALL
NO_CHARGES


@<TRIPOS>ATOM
   1 C1             0.2612     1.9372     1.0538 C.2     
   2 C2             0.0320     0.5415     0.5337 C.3     
   3 C3            -1.1011     0.5599    -0.4942 C.3     
   4 O4             1.3380     2.4661     0.9103 O.2     
   5 O5            -0.7325     2.5948     1.6716 O.3     
   6 C6            -1.4193    -0.8513    -0.9165 C.ar    
   7 C7            -2.3416    -1.5937    -0.2021 C.ar    
   8 C8            -2.6355    -2.8873    -0.5864 C.ar    
   9 C9            -2.0035    -3.4424    -1.6918 C.ar    
  10 C10           -1.0775    -2.6938    -2.4072 C.ar    
  11 C11           -0.7925    -1.3989    -2.0208 C.ar    
  12 N12           -2.2981    -4.7505    -2.0829 N.3     
  13 C13           -1.5209    -5.1329    -3.2687 C.3     
  14 C14           -1.9733    -6.5121    -3.7538 C.3     
  15 C15           -1.7666    -7.5350    -2.6333 C.3     
  16 C16           -2.5477    -7.0881    -1.3945 C.3     
  17 C17           -2.0787    -5.6922    -0.9778 C.3     
  18 C18           -2.2735    -8.9041    -3.0910 C.3     
  19 N19           -1.9675    -9.9056    -2.0665 N.pl3   
  20 C20           -2.3269   -11.2059    -2.2562 C.2     
  21 N21           -2.9524   -11.5622    -3.3665 N.2     
  22 C22           -3.3074   -12.8158    -3.6112 C.2     
  23 C23           -2.9885   -13.9245    -2.6414 C.3     
  24 C24           -2.8957   -13.3351    -1.2271 C.3     
  25 N25           -2.0356   -12.1393    -1.3021 N.pl3   
  26 O26           -3.9025   -13.0763    -4.6385 O.2     
  27 C27            2.2799    -0.3901     0.6615 C.2     
  28 C28            3.5522    -0.8025     0.0261 C.ar    
  29 C29            3.7953    -2.1517    -0.2366 C.ar    
  30 C30            4.9787    -2.5366    -0.8272 C.ar    
  31 C31            5.9364    -1.5752    -1.1641 C.ar    
  32 C32            5.6916    -0.2243    -0.9009 C.ar    
  33 C33            4.5048     0.1587    -0.3147 C.ar    
  34 O34            2.1573    -0.4476     1.8692 O.2     
  35 N35            1.2578     0.0488    -0.0995 N.am    
  36 C36            4.2378     1.6155    -0.0364 C.3     
  37 C37            2.7629    -3.1877     0.1266 C.3     
  38 C38            1.7546    -3.3253    -1.0159 C.3     
  39 C39            7.2033    -1.9857    -1.7957 C.2     
  40 O40            7.4153    -3.1574    -2.0233 O.2     
  41 C41            8.2351    -0.9490    -2.1585 C.3     
  42 H42           -0.2386    -0.1147     1.3610 H       
  43 H43           -1.9867     1.0149    -0.0507 H       
  44 H44           -0.7925     1.1388    -1.3647 H       
  45 H45           -0.5380     3.4876     1.9881 H       
  46 H46           -2.8323    -1.1617     0.6575 H       
  47 H47           -3.3557    -3.4667    -0.0278 H       
  48 H48           -0.5844    -3.1223    -3.2671 H       
  49 H49           -0.0761    -0.8146    -2.5794 H       
  50 H50           -1.6801    -4.3996    -4.0593 H       
  51 H51           -0.4618    -5.1672    -3.0132 H       
  52 H52           -3.0290    -6.4750    -4.0226 H       
  53 H53           -1.3855    -6.8024    -4.6246 H       
  54 H54           -0.7059    -7.6006    -2.3911 H       
  55 H55           -3.6125    -7.0601    -1.6261 H       
  56 H56           -2.3703    -7.7900    -0.5796 H       
  57 H57           -1.0170    -5.7239    -0.7330 H       
  58 H58           -2.6429    -5.3652    -0.1044 H       
  59 H59           -3.3517    -8.8595    -3.2449 H       
  60 H60           -1.7842    -9.1789    -4.0254 H       
  61 H61           -1.5089    -9.6429    -1.2532 H       
  62 H62           -3.7779   -14.6755    -2.6729 H       
  63 H63           -2.0361   -14.3817    -2.9097 H       
  64 H64           -3.8898   -13.0587    -0.8756 H       
  65 H65           -2.4530   -14.0657    -0.5502 H       
  66 H66           -1.2901   -12.0172    -0.6935 H       
  67 H67            5.1668    -3.5807    -1.0297 H       
  68 H68            6.4306     0.5192    -1.1603 H       
  69 H69            1.3339     0.0386    -1.0664 H       
  70 H70            4.6045     1.8685     0.9583 H       
  71 H71            4.7503     2.2271    -0.7790 H       
  72 H72            3.1655     1.8046    -0.0874 H       
  73 H73            3.2537    -4.1462     0.2954 H       
  74 H74            2.2436    -2.8805     1.0344 H       
  75 H75            0.9535    -4.0000    -0.7142 H       
  76 H76            1.3361    -2.3466    -1.2510 H       
  77 H77            2.2559    -3.7271    -1.8965 H       
  78 H78            8.5488    -0.4185    -1.2594 H       
  79 H79            9.0976    -1.4377    -2.6116 H       
  80 H80            7.8051    -0.2408    -2.8668 H       
@<TRIPOS>BOND
   1    1    2 1
   2    1    4 2
   3    1    5 1
   4    2    3 1
   5    2   35 1
   6    2   42 1
   7    3    6 1
   8    3   43 1
   9    3   44 1
  10    5   45 1
  11    6    7 ar
  12    6   11 ar
  13    7    8 ar
  14    7   46 1
  15    8    9 ar
  16    8   47 1
  17    9   10 ar
  18    9   12 1
  19   10   11 ar
  20   10   48 1
  21   11   49 1
  22   12   13 1
  23   12   17 1
  24   13   14 1
  25   13   50 1
  26   13   51 1
  27   14   15 1
  28   14   52 1
  29   14   53 1
  30   15   16 1
  31   15   18 1
  32   15   54 1
  33   16   17 1
  34   16   55 1
  35   16   56 1
  36   17   57 1
  37   17   58 1
  38   18   19 1
  39   18   59 1
  40   18   60 1
  41   19   20 1
  42   19   61 1
  43   20   21 2
  44   20   25 1
  45   21   22 1
  46   22   23 1
  47   22   26 2
  48   23   24 1
  49   23   62 1
  50   23   63 1
  51   24   25 1
  52   24   64 1
  53   24   65 1
  54   25   66 1
  55   27   28 1
  56   27   34 2
  57   27   35 am
  58   28   29 ar
  59   28   33 ar
  60   29   30 ar
  61   29   37 1
  62   30   31 ar
  63   30   67 1
  64   31   32 ar
  65   31   39 1
  66   32   33 ar
  67   32   68 1
  68   33   36 1
  69   35   69 1
  70   36   70 1
  71   36   71 1
  72   36   72 1
  73   37   38 1
  74   37   73 1
  75   37   74 1
  76   38   75 1
  77   38   76 1
  78   38   77 1
  79   39   40 2
  80   39   41 1
  81   41   78 1
  82   41   79 1
  83   41   80 1

#	End of record

