#	Name: ASD01915987
#	Creating user name:	WinNT
#	Creation time:	15. 06. 2019 20:06

#	Modifying user name:	WinNT
#	Modification time:	15. 06. 2019 20:06

#	Program:	/corina/corina34_cracker 3.40 0067  02.08.2006

@<TRIPOS>MOLECULE
ASD01915987
  41   42    0    0    0
SMALL
NO_CHARGES


@<TRIPOS>ATOM
   1 C1            -0.0191     1.4094     0.1334 C.ar    
   2 C2            -0.0051     0.0081     0.1170 C.ar    
   3 C3             1.2264    -0.6595     0.0581 C.ar    
   4 C4             2.3814     0.0969     0.0185 C.ar    
   5 C5             2.2853     1.4890     0.0383 C.ar    
   6 N6             1.1019     2.0906     0.0945 N.ar    
   7 C7             3.5177     2.3060    -0.0039 C.2     
   8 N8             3.4340     3.6468    -0.1130 N.am    
   9 O9             4.6059     1.7682     0.0599 O.2     
  10 C10            4.6457     4.4657    -0.0270 C.3     
  11 C11            5.6131     4.0638    -1.1421 C.3     
  12 C12            4.2753     5.9422    -0.1809 C.3     
  13 C13            5.3141     4.2465     1.3317 C.3     
  14 C14           -1.2308    -0.7311     0.1602 C.1     
  15 C15           -2.2357    -1.3371     0.1956 C.1     
  16 C16           -3.4614    -2.0763     0.2388 C.ar    
  17 C17           -3.4498    -3.4777     0.2224 C.ar    
  18 C18           -4.6900    -1.4129     0.3038 C.ar    
  19 N19           -5.8162    -2.0935     0.3434 N.ar    
  20 C20           -5.8348    -3.4127     0.3238 C.ar    
  21 C21           -4.6617    -4.1436     0.2658 C.ar    
  22 C22            2.1314     4.2851    -0.3176 C.3     
  23 H23           -0.9623     1.9341     0.1741 H       
  24 H24            1.2709    -1.7385     0.0443 H       
  25 H25            3.3477    -0.3834    -0.0269 H       
  26 H26            5.1370     4.2200    -2.1101 H       
  27 H27            6.5146     4.6731    -1.0781 H       
  28 H28            5.8770     3.0119    -1.0325 H       
  29 H29            3.5860     6.2286     0.6135 H       
  30 H30            5.1768     6.5516    -0.1169 H       
  31 H31            3.7991     6.0984    -1.1488 H       
  32 H32            5.5780     3.1946     1.4413 H       
  33 H33            6.2156     4.8558     1.3957 H       
  34 H34            4.6249     4.5329     2.1261 H       
  35 H35           -2.5190    -4.0236     0.1768 H       
  36 H36           -4.7155    -0.3334     0.3220 H       
  37 H37           -6.7818    -3.9308     0.3580 H       
  38 H38           -4.6918    -5.2231     0.2500 H       
  39 H39            1.6404     4.4256     0.6453 H       
  40 H40            2.2727     5.2533    -0.7981 H       
  41 H41            1.5120     3.6515    -0.9523 H       
@<TRIPOS>BOND
   1    1    2 ar
   2    1    6 ar
   3    1   23 1
   4    2    3 ar
   5    2   14 1
   6    3    4 ar
   7    3   24 1
   8    4    5 ar
   9    4   25 1
  10    5    6 ar
  11    5    7 1
  12    7    8 am
  13    7    9 2
  14    8   10 1
  15    8   22 1
  16   10   11 1
  17   10   12 1
  18   10   13 1
  19   11   26 1
  20   11   27 1
  21   11   28 1
  22   12   29 1
  23   12   30 1
  24   12   31 1
  25   13   32 1
  26   13   33 1
  27   13   34 1
  28   14   15 3
  29   15   16 1
  30   16   17 ar
  31   16   18 ar
  32   17   21 ar
  33   17   35 1
  34   18   19 ar
  35   18   36 1
  36   19   20 ar
  37   20   21 ar
  38   20   37 1
  39   21   38 1
  40   22   39 1
  41   22   40 1
  42   22   41 1

#	End of record

