#	Name: ASD02198265
#	Creating user name:	WinNT
#	Creation time:	15. 06. 2019 20:19

#	Modifying user name:	WinNT
#	Modification time:	15. 06. 2019 20:19

#	Program:	/corina/corina34_cracker 3.40 0067  02.08.2006

@<TRIPOS>MOLECULE
ASD02198265
  31   32    0    0    0
SMALL
NO_CHARGES


@<TRIPOS>ATOM
   1 C1             0.5621     1.2175     1.4998 C.2     
   2 C2             0.6007    -0.1159     1.4315 C.2     
   3 S3             1.5346     1.9260     0.2909 S.3     
   4 C4             2.0077     0.3491    -0.3259 C.2     
   5 C5             1.3969    -0.6281     0.4255 C.2     
   6 C6             2.8757     0.1218    -1.4189 C.2     
   7 O7             3.4156     1.1671    -2.0807 O.3     
   8 O8             3.1361    -1.0163    -1.7628 O.2     
   9 N9             1.5640    -1.9931     0.1956 N.am    
  10 C10            4.2835     0.8639    -3.1747 C.3     
  11 C11            0.5109    -2.8277     0.2991 C.2     
  12 N12            0.6475    -4.1286    -0.0257 N.am    
  13 S13           -1.0005    -2.2355     0.8431 S.2     
  14 C14           -0.4109    -5.0183     0.1891 C.ar    
  15 C15           -0.1753    -6.2491     0.7908 C.ar    
  16 C16           -1.6997    -4.6716    -0.1931 C.ar    
  17 C17           -2.7427    -5.5522     0.0202 C.ar    
  18 C18           -2.5047    -6.7778     0.6141 C.ar    
  19 C19           -1.2231    -7.1250     1.0011 C.ar    
  20 Cl20           1.4332    -6.6853     1.2767 Cl      
  21 H21           -0.0139     1.7747     2.2237 H       
  22 H22            0.0501    -0.7473     2.1130 H       
  23 H23            2.4382    -2.3420    -0.0388 H       
  24 H24            3.7365     0.2931    -3.9251 H       
  25 H25            4.6475     1.7910    -3.6175 H       
  26 H26            5.1286     0.2763    -2.8160 H       
  27 H27            1.4797    -4.4481    -0.4084 H       
  28 H28           -1.8869    -3.7142    -0.6565 H       
  29 H29           -3.7453    -5.2827    -0.2771 H       
  30 H30           -3.3221    -7.4638     0.7802 H       
  31 H31           -1.0404    -8.0833     1.4645 H       
@<TRIPOS>BOND
   1    1    2 2
   2    1    3 1
   3    1   21 1
   4    2    5 1
   5    2   22 1
   6    3    4 1
   7    4    5 2
   8    4    6 1
   9    5    9 1
  10    6    7 1
  11    6    8 2
  12    7   10 1
  13    9   11 am
  14    9   23 1
  15   10   24 1
  16   10   25 1
  17   10   26 1
  18   11   12 am
  19   11   13 2
  20   12   14 1
  21   12   27 1
  22   14   15 ar
  23   14   16 ar
  24   15   20 1
  25   15   19 ar
  26   16   17 ar
  27   16   28 1
  28   17   18 ar
  29   17   29 1
  30   18   19 ar
  31   18   30 1
  32   19   31 1

#	End of record

