#	Name: ASD05313104
#	Creating user name:	WinNT
#	Creation time:	15. 06. 2019 20:58

#	Modifying user name:	WinNT
#	Modification time:	15. 06. 2019 20:58

#	Program:	/corina/corina34_cracker 3.40 0067  02.08.2006

@<TRIPOS>MOLECULE
ASD05313104
  39   42    0    0    0
SMALL
NO_CHARGES


@<TRIPOS>ATOM
   1 C1            -0.2483     1.0328     1.0442 C.2     
   2 C2            -0.0380    -0.4436     0.8074 C.3     
   3 N3             0.7674     1.9409     1.0999 N.pl3   
   4 N4             1.3696    -0.6172     0.4013 N.am    
   5 C5             2.4014     0.1279     1.1382 C.3     
   6 C6             2.1859     1.6318     0.9296 C.3     
   7 N7            -1.1180     2.9285     1.4059 N.2     
   8 N8            -1.3607     1.6746     1.2329 N.2     
   9 C9             0.1797     3.1458     1.3352 C.2     
  10 C10            0.8657     4.4476     1.4854 C.ar    
  11 C11            2.1734     4.6071     1.0254 C.ar    
  12 C12            2.8084     5.8232     1.1674 C.ar    
  13 C13            2.1499     6.8857     1.7658 C.ar    
  14 C14            0.8511     6.7325     2.2244 C.ar    
  15 C15            0.2053     5.5222     2.0824 C.ar    
  16 F16            2.7765     8.0747     1.9030 F       
  17 C17            1.7008    -1.4362    -0.6165 C.2     
  18 O18            2.8519    -1.4903    -1.0033 O.2     
  19 C19            0.6645    -2.2685    -1.2624 C.ar    
  20 C20            0.5873    -2.3371    -2.6557 C.ar    
  21 C21           -0.3850    -3.1179    -3.2522 C.ar    
  22 C22           -1.2797    -3.8293    -2.4717 C.ar    
  23 C23           -1.2075    -3.7642    -1.0915 C.ar    
  24 C24           -0.2381    -2.9943    -0.4830 C.ar    
  25 Cl25          -0.4844    -3.2058    -4.9832 Cl      
  26 Cl26           1.7086    -1.4440    -3.6348 Cl      
  27 H27           -0.2318    -0.9990     1.7250 H       
  28 H28           -0.6998    -0.7912     0.0141 H       
  29 H29            2.3305    -0.1061     2.2004 H       
  30 H30            3.3874    -0.1531     0.7680 H       
  31 H31            2.5009     1.9091    -0.0764 H       
  32 H32            2.7705     2.1885     1.6619 H       
  33 H33            2.6875     3.7796     0.5592 H       
  34 H34            3.8206     5.9475     0.8121 H       
  35 H35            0.3425     7.5635     2.6903 H       
  36 H36           -0.8084     5.4051     2.4361 H       
  37 H37           -2.0379    -4.4377    -2.9422 H       
  38 H38           -1.9091    -4.3217    -0.4888 H       
  39 H39           -0.1807    -2.9489     0.5945 H       
@<TRIPOS>BOND
   1    1    2 1
   2    1    3 1
   3    1    8 2
   4    2    4 1
   5    2   27 1
   6    2   28 1
   7    3    6 1
   8    3    9 1
   9    4    5 1
  10    4   17 am
  11    5    6 1
  12    5   29 1
  13    5   30 1
  14    6   31 1
  15    6   32 1
  16    7    8 1
  17    7    9 2
  18    9   10 1
  19   10   11 ar
  20   10   15 ar
  21   11   12 ar
  22   11   33 1
  23   12   13 ar
  24   12   34 1
  25   13   14 ar
  26   13   16 1
  27   14   15 ar
  28   14   35 1
  29   15   36 1
  30   17   18 2
  31   17   19 1
  32   19   20 ar
  33   19   24 ar
  34   20   21 ar
  35   20   26 1
  36   21   22 ar
  37   21   25 1
  38   22   23 ar
  39   22   37 1
  40   23   24 ar
  41   23   38 1
  42   24   39 1

#	End of record

