#	Name: ASD04880482
#	Creating user name:	WinNT
#	Creation time:	15. 06. 2019 20:53

#	Modifying user name:	WinNT
#	Modification time:	15. 06. 2019 20:53

#	Program:	/corina/corina34_cracker 3.40 0067  02.08.2006

@<TRIPOS>MOLECULE
ASD04880482
  40   42    0    0    0
SMALL
NO_CHARGES


@<TRIPOS>ATOM
   1 C1            -0.0144     1.2117     0.0087 C.2     
   2 O2             0.0438    -0.0026     0.0315 O.2     
   3 N3             1.1184     1.9397    -0.0483 N.am    
   4 N4             1.1858     3.3241    -0.1910 N.2     
   5 C5             2.3856     3.7925    -0.2199 C.2     
   6 C6             3.3746     2.6567    -0.0856 C.3     
   7 C7             2.4860     1.4030     0.0364 C.3     
   8 C8             2.7398     5.2169    -0.3628 C.ar    
   9 C9             1.7360     6.1805    -0.4797 C.ar    
  10 C10            2.0766     7.5154    -0.6136 C.ar    
  11 C11            3.4127     7.8937    -0.6318 C.ar    
  12 C12            4.4082     6.9411    -0.5167 C.ar    
  13 C13            4.0808     5.6081    -0.3760 C.ar    
  14 C14            3.7791     9.3481    -0.7782 C.3     
  15 O15            1.1028     8.4566    -0.7277 O.3     
  16 C16           -0.2500     7.9968    -0.7016 C.3     
  17 C17           -1.3276     1.8892     0.0373 C.ar    
  18 C18           -2.5036     1.1426    -0.0542 C.ar    
  19 C19           -3.7277     1.7826    -0.0263 C.ar    
  20 C20           -3.7881     3.1622     0.0922 C.ar    
  21 C21           -2.6255     3.9058     0.1832 C.ar    
  22 C22           -1.3971     3.2778     0.1618 C.ar    
  23 F23           -4.8674     1.0627    -0.1151 F       
  24 H24            4.0090     2.5956    -0.9699 H       
  25 H25            3.9797     2.7808     0.8125 H       
  26 H26            2.6455     0.9092     0.9950 H       
  27 H27            2.6801     0.7159    -0.7872 H       
  28 H28            0.6973     5.8851    -0.4661 H       
  29 H29            5.4453     7.2419    -0.5323 H       
  30 H30            4.8608     4.8672    -0.2811 H       
  31 H31            3.8511     9.8058     0.2084 H       
  32 H32            4.7387     9.4315    -1.2883 H       
  33 H33            3.0124     9.8591    -1.3607 H       
  34 H34           -0.4142     7.3040    -1.5269 H       
  35 H35           -0.4430     7.4888     0.2432 H       
  36 H36           -0.9247     8.8471    -0.8014 H       
  37 H37           -2.4566     0.0676    -0.1469 H       
  38 H38           -4.7470     3.6587     0.1133 H       
  39 H39           -2.6794     4.9805     0.2754 H       
  40 H40           -0.4906     3.8601     0.2371 H       
@<TRIPOS>BOND
   1    1    2 2
   2    1    3 am
   3    1   17 1
   4    3    4 1
   5    3    7 1
   6    4    5 2
   7    5    6 1
   8    5    8 1
   9    6    7 1
  10    6   24 1
  11    6   25 1
  12    7   26 1
  13    7   27 1
  14    8    9 ar
  15    8   13 ar
  16    9   10 ar
  17    9   28 1
  18   10   11 ar
  19   10   15 1
  20   11   12 ar
  21   11   14 1
  22   12   13 ar
  23   12   29 1
  24   13   30 1
  25   14   31 1
  26   14   32 1
  27   14   33 1
  28   15   16 1
  29   16   34 1
  30   16   35 1
  31   16   36 1
  32   17   18 ar
  33   17   22 ar
  34   18   19 ar
  35   18   37 1
  36   19   20 ar
  37   19   23 1
  38   20   21 ar
  39   20   38 1
  40   21   22 ar
  41   21   39 1
  42   22   40 1

#	End of record

