#	Name: ASD01910918
#	Creating user name:	WinNT
#	Creation time:	15. 06. 2019 19:56

#	Modifying user name:	WinNT
#	Modification time:	15. 06. 2019 19:56

#	Program:	/corina/corina34_cracker 3.40 0067  02.08.2006

@<TRIPOS>MOLECULE
ASD01910918
  55   58    0    0    0
SMALL
NO_CHARGES


@<TRIPOS>ATOM
   1 N1             0.3378     0.8936     0.1062 N.3     
   2 C2             0.2908    -0.5629     0.2919 C.3     
   3 C3            -1.1596    -0.9980     0.5268 C.3     
   4 N4            -1.9859    -0.4848    -0.5764 N.am    
   5 C5            -1.8888     0.9439    -0.9122 C.3     
   6 C6            -0.4097     1.3026    -1.0904 C.3     
   7 C7            -2.8098    -1.3020    -1.2618 C.2     
   8 C8            -3.7260    -0.7440    -2.2796 C.ar    
   9 C9            -3.9683    -1.4457    -3.4626 C.ar    
  10 C10           -4.8236    -0.9267    -4.4149 C.ar    
  11 C11           -5.4449     0.2878    -4.2055 C.ar    
  12 C12           -5.2113     1.0016    -3.0259 C.ar    
  13 C13           -4.3535     0.4798    -2.0578 C.ar    
  14 C14           -5.8560     2.2619    -2.8098 C.1     
  15 O15           -2.7998    -2.4976    -1.0432 O.2     
  16 C16           -6.3846     3.2951    -2.6325 C.1     
  17 C17           -7.0292     4.5554    -2.4164 C.ar    
  18 C18           -6.8032     5.2770    -1.2417 C.ar    
  19 N19           -7.3965     6.4358    -1.0437 N.ar    
  20 C20           -8.2186     6.9589    -1.9329 C.ar    
  21 C21           -8.4954     6.3068    -3.1215 C.ar    
  22 C22           -7.8935     5.0890    -3.3822 C.ar    
  23 C23            1.6585     1.3495     0.0523 C.ar    
  24 C24            2.4818     0.9724    -1.0003 C.ar    
  25 C25            3.7861     1.4245    -1.0518 C.ar    
  26 C26            4.2727     2.2525    -0.0547 C.ar    
  27 C27            3.4534     2.6299     0.9960 C.ar    
  28 C28            2.1470     2.1850     1.0486 C.ar    
  29 S29            1.1051     2.6655     2.3858 S.o2    
  30 F30            5.5489     2.6927    -0.1066 F       
  31 C31           -0.1968     3.6621     1.6096 C.3     
  32 O32            0.5726     1.4413     2.8725 O.2     
  33 O33            1.9359     3.4792     3.2024 O.2     
  34 H34            0.6786    -1.0558    -0.5996 H       
  35 H35            0.8977    -0.8394     1.1540 H       
  36 H36           -1.2160    -2.0863     0.5509 H       
  37 H37           -1.5160    -0.5891     1.4722 H       
  38 H38           -2.4273     1.1395    -1.8394 H       
  39 H39           -2.3153     1.5395    -0.1051 H       
  40 H40           -0.3108     2.3790    -1.2308 H       
  41 H41           -0.0121     0.7837    -1.9626 H       
  42 H42           -3.4854    -2.3964    -3.6334 H       
  43 H43           -5.0067    -1.4737    -5.3279 H       
  44 H44           -6.1125     0.6878    -4.9543 H       
  45 H45           -4.1692     1.0265    -1.1448 H       
  46 H46           -6.1368     4.8811    -0.4897 H       
  47 H47           -8.6837     7.9122    -1.7296 H       
  48 H48           -9.1710     6.7463    -3.8404 H       
  49 H49           -8.0917     4.5586    -4.3018 H       
  50 H50            2.1028     0.3259    -1.7780 H       
  51 H51            4.4269     1.1314    -1.8703 H       
  52 H52            3.8350     3.2759     1.7728 H       
  53 H53           -0.7889     3.0326     0.9453 H       
  54 H54           -0.8413     4.0828     2.3815 H       
  55 H55            0.2574     4.4698     1.0356 H       
@<TRIPOS>BOND
   1    1    2 1
   2    1   23 1
   3    1    6 1
   4    2    3 1
   5    2   34 1
   6    2   35 1
   7    3    4 1
   8    3   36 1
   9    3   37 1
  10    4    5 1
  11    4    7 am
  12    5    6 1
  13    5   38 1
  14    5   39 1
  15    6   40 1
  16    6   41 1
  17    7    8 1
  18    7   15 2
  19    8    9 ar
  20    8   13 ar
  21    9   10 ar
  22    9   42 1
  23   10   11 ar
  24   10   43 1
  25   11   12 ar
  26   11   44 1
  27   12   13 ar
  28   12   14 1
  29   13   45 1
  30   14   16 3
  31   16   17 1
  32   17   18 ar
  33   17   22 ar
  34   18   19 ar
  35   18   46 1
  36   19   20 ar
  37   20   21 ar
  38   20   47 1
  39   21   22 ar
  40   21   48 1
  41   22   49 1
  42   23   24 ar
  43   23   28 ar
  44   24   25 ar
  45   24   50 1
  46   25   26 ar
  47   25   51 1
  48   26   27 ar
  49   26   30 1
  50   27   28 ar
  51   27   52 1
  52   28   29 1
  53   29   31 1
  54   29   32 2
  55   29   33 2
  56   31   53 1
  57   31   54 1
  58   31   55 1

#	End of record

