#	Name: ASD09740222
#	Creating user name:	WinNT
#	Creation time:	15. 06. 2019 21:23

#	Modifying user name:	WinNT
#	Modification time:	15. 06. 2019 21:23

#	Program:	/corina/corina34_cracker 3.40 0067  02.08.2006

@<TRIPOS>MOLECULE
ASD09740222
  29   31    0    0    0
SMALL
NO_CHARGES


@<TRIPOS>ATOM
   1 O1            -0.0144     1.2085     0.0087 O.3     
   2 N2             0.0021    -0.0041     0.0020 N.2     
   3 C3             1.2411     1.6827    -0.0008 C.2     
   4 N4             2.0454     0.6362    -0.0141 N.2     
   5 C5             1.2345    -0.4421    -0.0121 C.2     
   6 C6             1.6623    -1.8642    -0.0234 C.ar    
   7 C7             1.6456     3.1043     0.0026 C.ar    
   8 C8             0.7212    -2.8965    -0.0200 C.ar    
   9 C9             3.0167    -2.2058    -0.0435 C.ar    
  10 C10            3.3709    -3.5400    -0.0534 C.ar    
  11 N11            2.4506    -4.4846    -0.0445 N.ar    
  12 C12            1.1619    -4.2047    -0.0308 C.ar    
  13 C13            0.6761     4.1087     0.0173 C.ar    
  14 C14            1.0596     5.4333     0.0203 C.ar    
  15 C15            2.4036     5.7681     0.0083 C.ar    
  16 C16            3.3698     4.7762    -0.0063 C.ar    
  17 C17            2.9984     3.4478    -0.0032 C.ar    
  18 Cl18           2.8787     7.4378     0.0110 Cl      
  19 C19            0.0143     6.5187     0.0362 C.3     
  20 F20           -1.2592     5.9397     0.0457 F       
  21 F21            0.1772     7.3062     1.1809 F       
  22 F22            0.1546     7.3179    -1.1035 F       
  23 H23           -0.3357    -2.6744    -0.0087 H       
  24 H24            3.7755    -1.4373    -0.0516 H       
  25 H25            4.4155    -3.8138    -0.0689 H       
  26 H26            0.4418    -5.0096    -0.0235 H       
  27 H27           -0.3721     3.8489     0.0259 H       
  28 H28            4.4162     5.0433    -0.0160 H       
  29 H29            3.7529     2.6750    -0.0142 H       
@<TRIPOS>BOND
   1    1    2 1
   2    1    3 1
   3    2    5 2
   4    3    4 2
   5    3    7 1
   6    4    5 1
   7    5    6 1
   8    6    8 ar
   9    6    9 ar
  10    7   13 ar
  11    7   17 ar
  12    8   12 ar
  13    8   23 1
  14    9   10 ar
  15    9   24 1
  16   10   11 ar
  17   10   25 1
  18   11   12 ar
  19   12   26 1
  20   13   14 ar
  21   13   27 1
  22   14   15 ar
  23   14   19 1
  24   15   16 ar
  25   15   18 1
  26   16   17 ar
  27   16   28 1
  28   17   29 1
  29   19   20 1
  30   19   21 1
  31   19   22 1

#	End of record

