#	Name: ASD03090330
#	Creating user name:	WinNT
#	Creation time:	15. 06. 2019 20:28

#	Modifying user name:	WinNT
#	Modification time:	15. 06. 2019 20:28

#	Program:	/corina/corina34_cracker 3.40 0067  02.08.2006

@<TRIPOS>MOLECULE
ASD03090330
  48   50    0    0    0
SMALL
NO_CHARGES


@<TRIPOS>ATOM
   1 N1             0.4477     1.5122     1.4728 N.ar    
   2 C2             0.4100     0.1939     1.4383 C.ar    
   3 C3             1.5364    -0.5391     1.1264 C.ar    
   4 C4             2.7290     0.1364     0.8448 C.ar    
   5 C5             2.7230     1.5344     0.8931 C.ar    
   6 C6             1.5506     2.1878     1.2140 C.ar    
   7 C7             3.9627    -0.6076     0.5056 C.2     
   8 N8             5.7411    -3.4556    -0.5335 N.pl3   
   9 C9             4.8143    -4.4450    -0.8777 C.ar    
  10 C10            3.5975    -4.0904    -1.4453 C.ar    
  11 C11            2.6826    -5.0685    -1.7848 C.ar    
  12 C12            2.9773    -6.4018    -1.5601 C.ar    
  13 C13            4.1918    -6.7594    -0.9933 C.ar    
  14 C14            5.1122    -5.7836    -0.6575 C.ar    
  15 N15            4.0269    -1.8635     0.1115 N.2     
  16 C16            5.2981    -2.2023    -0.1065 C.2     
  17 N17            6.0665    -1.1671     0.1453 N.2     
  18 N18            5.2217    -0.1171     0.5399 N.pl3   
  19 C19            5.6256     1.2385     0.9213 C.3     
  20 C20            5.7295     2.1111    -0.3312 C.3     
  21 C21            6.1450     3.5055     0.0611 C.2     
  22 N22            6.3011     4.4533    -0.8844 N.am    
  23 C23            6.7050     5.8089    -0.5031 C.3     
  24 O24            6.3388     3.7750     1.2276 O.2     
  25 C25            6.0669     4.1278    -2.2935 C.3     
  26 F26            2.0808    -7.3563    -1.8926 F       
  27 C27           -0.8809    -0.5210     1.7442 C.3     
  28 F28            4.4776    -8.0615    -0.7742 F       
  29 H29            1.4984    -1.6181     1.1004 H       
  30 H30            3.6225     2.0940     0.6827 H       
  31 H31            1.5358     3.2670     1.2535 H       
  32 H32            6.6916    -3.6402    -0.5916 H       
  33 H33            3.3661    -3.0502    -1.6209 H       
  34 H34            1.7362    -4.7922    -2.2259 H       
  35 H35            6.0579    -6.0615    -0.2162 H       
  36 H36            4.8836     1.6618     1.5984 H       
  37 H37            6.5940     1.2023     1.4203 H       
  38 H38            6.4715     1.6878    -1.0083 H       
  39 H39            4.7611     2.1473    -0.8302 H       
  40 H40            7.7926     5.8798    -0.5113 H       
  41 H41            6.2888     6.5249    -1.2117 H       
  42 H42            6.3340     6.0306     0.4976 H       
  43 H43            5.0213     4.3124    -2.5401 H       
  44 H44            6.7038     4.7512    -2.9211 H       
  45 H45            6.3014     3.0777    -2.4677 H       
  46 H46           -1.4464    -0.6601     0.8228 H       
  47 H47           -0.6619    -1.4929     2.1864 H       
  48 H48           -1.4679     0.0729     2.4447 H       
@<TRIPOS>BOND
   1    1    2 ar
   2    1    6 ar
   3    2    3 ar
   4    2   27 1
   5    3    4 ar
   6    3   29 1
   7    4    5 ar
   8    4    7 1
   9    5    6 ar
  10    5   30 1
  11    6   31 1
  12    7   15 2
  13    7   18 1
  14    8    9 1
  15    8   16 1
  16    8   32 1
  17    9   10 ar
  18    9   14 ar
  19   10   11 ar
  20   10   33 1
  21   11   12 ar
  22   11   34 1
  23   12   13 ar
  24   12   26 1
  25   13   14 ar
  26   13   28 1
  27   14   35 1
  28   15   16 1
  29   16   17 2
  30   17   18 1
  31   18   19 1
  32   19   20 1
  33   19   36 1
  34   19   37 1
  35   20   21 1
  36   20   38 1
  37   20   39 1
  38   21   22 am
  39   21   24 2
  40   22   23 1
  41   22   25 1
  42   23   40 1
  43   23   41 1
  44   23   42 1
  45   25   43 1
  46   25   44 1
  47   25   45 1
  48   27   46 1
  49   27   47 1
  50   27   48 1

#	End of record

