#	Name: ASD05130112
#	Creating user name:	WinNT
#	Creation time:	15. 06. 2019 20:56

#	Modifying user name:	WinNT
#	Modification time:	15. 06. 2019 20:56

#	Program:	/corina/corina34_cracker 3.40 0067  02.08.2006

@<TRIPOS>MOLECULE
ASD05130112
  59   62    0    0    0
SMALL
NO_CHARGES


@<TRIPOS>ATOM
   1 C1            -0.8524     1.9104    -0.2758 C.2     
   2 C2            -0.6436     0.4220    -0.3860 C.3     
   3 O3            -1.9577     2.3520    -0.0431 O.2     
   4 N4             0.1901     2.7504    -0.4304 N.am    
   5 N5             1.9019     7.2404    -0.5363 N.am    
   6 C6             1.6759     8.5688    -0.5375 C.2     
   7 C7             0.3056     9.0845    -0.4842 C.2     
   8 C8            -0.7436     8.2082    -0.4336 C.2     
   9 C9            -0.4799     6.8174    -0.4340 C.ar    
  10 C10           -1.5232     5.8846    -0.3837 C.ar    
  11 N11           -1.2607     4.5960    -0.3847 N.ar    
  12 C12           -0.0192     4.1264    -0.4326 C.ar    
  13 C13            1.0724     4.9797    -0.4843 C.ar    
  14 C14            0.8520     6.3529    -0.4856 C.ar    
  15 O15            2.6145     9.3439    -0.5827 O.2     
  16 C16            3.2765     6.7372    -0.5955 C.3     
  17 C17            3.9088     7.1368    -1.9302 C.3     
  18 C18            4.0891     7.3371     0.5537 C.3     
  19 C19            0.0580    10.5452    -0.4846 C.ar    
  20 C20            0.2004    11.2787    -1.6636 C.ar    
  21 C21           -0.0309    12.6404    -1.6619 C.ar    
  22 C22           -0.4041    13.2811    -0.4932 C.ar    
  23 C23           -0.5481    12.5567     0.6860 C.ar    
  24 C24           -0.3234    11.1895     0.6910 C.ar    
  25 N25           -0.9260    13.2089     1.8672 N.am    
  26 C26           -1.5588    12.5256     2.8414 C.2     
  27 O27           -1.7380    11.3285     2.7265 O.2     
  28 N28           -1.9930    13.1693     3.9431 N.am    
  29 C29           -2.7595    12.4879     4.8951 C.ar    
  30 C30           -2.7572    12.9063     6.2192 C.ar    
  31 C31           -3.5148    12.2316     7.1564 C.ar    
  32 C32           -4.2750    11.1405     6.7775 C.ar    
  33 C33           -4.2795    10.7213     5.4597 C.ar    
  34 C34           -3.5285    11.3952     4.5166 C.ar    
  35 F35           -0.6286    14.6133    -0.4972 F       
  36 Cl36           0.6687    10.4796    -3.1319 Cl      
  37 H37           -1.5925    -0.0907    -0.2282 H       
  38 H38           -0.2610     0.1812    -1.3778 H       
  39 H39            0.0737     0.0989     0.3684 H       
  40 H40            1.0864     2.3960    -0.5401 H       
  41 H41           -1.7595     8.5726    -0.3936 H       
  42 H42           -2.5474     6.2248    -0.3431 H       
  43 H43            2.0768     4.5847    -0.5226 H       
  44 H44            3.2698     5.6508    -0.5074 H       
  45 H45            3.9155     8.2232    -2.0182 H       
  46 H46            4.9315     6.7624    -1.9742 H       
  47 H47            3.3299     6.7095    -2.7489 H       
  48 H48            3.6386     7.0524     1.5046 H       
  49 H49            5.1118     6.9627     0.5097 H       
  50 H50            4.0958     8.4235     0.4657 H       
  51 H51            0.0800    13.2068    -2.5748 H       
  52 H52           -0.4391    10.6252     1.6045 H       
  53 H53           -0.7321    14.1522     1.9837 H       
  54 H54           -1.7742    14.1049     4.0761 H       
  55 H55           -2.1634    13.7582     6.5159 H       
  56 H56           -3.5132    12.5564     8.1865 H       
  57 H57           -4.8663    10.6143     7.5123 H       
  58 H58           -4.8742     9.8687     5.1668 H       
  59 H59           -3.5361    11.0703     3.4867 H       
@<TRIPOS>BOND
   1    1    2 1
   2    1    3 2
   3    1    4 am
   4    2   37 1
   5    2   38 1
   6    2   39 1
   7    4   12 1
   8    4   40 1
   9    5    6 am
  10    5   14 1
  11    5   16 1
  12    6    7 1
  13    6   15 2
  14    7    8 2
  15    7   19 1
  16    8    9 1
  17    8   41 1
  18    9   10 ar
  19    9   14 ar
  20   10   11 ar
  21   10   42 1
  22   11   12 ar
  23   12   13 ar
  24   13   14 ar
  25   13   43 1
  26   16   17 1
  27   16   18 1
  28   16   44 1
  29   17   45 1
  30   17   46 1
  31   17   47 1
  32   18   48 1
  33   18   49 1
  34   18   50 1
  35   19   20 ar
  36   19   24 ar
  37   20   21 ar
  38   20   36 1
  39   21   22 ar
  40   21   51 1
  41   22   23 ar
  42   22   35 1
  43   23   24 ar
  44   23   25 1
  45   24   52 1
  46   25   26 am
  47   25   53 1
  48   26   27 2
  49   26   28 am
  50   28   29 1
  51   28   54 1
  52   29   30 ar
  53   29   34 ar
  54   30   31 ar
  55   30   55 1
  56   31   32 ar
  57   31   56 1
  58   32   33 ar
  59   32   57 1
  60   33   34 ar
  61   33   58 1
  62   34   59 1

#	End of record

