#	Name: ASD06170235
#	Creating user name:	WinNT
#	Creation time:	15. 06. 2019 21:05

#	Modifying user name:	WinNT
#	Modification time:	15. 06. 2019 21:05

#	Program:	/corina/corina34_cracker 3.40 0067  02.08.2006

@<TRIPOS>MOLECULE
ASD06170235
  58   62    0    0    0
SMALL
NO_CHARGES


@<TRIPOS>ATOM
   1 N1            -0.4652    -1.1628    -3.3675 N.am    
   2 C2             0.0774    -1.6346    -2.2383 C.2     
   3 C3            -0.5734    -1.4506    -0.8955 C.3     
   4 O4            -1.9402    -1.0682    -1.0678 O.3     
   5 C5            -2.1053     0.0197    -1.9850 C.3     
   6 C6            -1.7498    -0.4675    -3.3915 C.3     
   7 C7            -0.5086    -2.7446    -0.1259 C.2     
   8 O8            -1.5302    -3.3354     0.1544 O.2     
   9 N9             0.6846    -3.2455     0.2509 N.am    
  10 C10            0.2276    -1.3374    -4.5706 C.ar    
  11 C11           -0.2778    -2.1847    -5.5480 C.ar    
  12 C12            0.4082    -2.3545    -6.7346 C.ar    
  13 C13            1.5973    -1.6822    -6.9498 C.ar    
  14 C14            2.1033    -0.8379    -5.9786 C.ar    
  15 C15            1.4192    -0.6593    -4.7922 C.ar    
  16 O16            1.1311    -2.2320    -2.3006 O.2     
  17 C17            0.7410    -4.3957     1.0484 C.ar    
  18 C18           -0.1927    -5.4088     0.8733 C.ar    
  19 C19           -0.1360    -6.5436     1.6603 C.ar    
  20 C20            0.8554    -6.6698     2.6262 C.ar    
  21 C21            1.7869    -5.6577     2.8001 C.ar    
  22 C22            1.7337    -4.5257     2.0101 C.ar    
  23 O23            0.9114    -7.7859     3.4012 O.3     
  24 N24            2.9240   -11.0587     1.9021 N.ar    
  25 C25            2.9287    -9.9228     1.2445 C.ar    
  26 C26            2.2617    -8.8001     1.7176 C.ar    
  27 C27            1.5702    -8.8660     2.9146 C.ar    
  28 C28            1.5723   -10.0941     3.6145 C.ar    
  29 C29            0.8937   -10.2377     4.8335 C.ar    
  30 C30            0.9141   -11.4333     5.4833 C.ar    
  31 C31            1.6051   -12.5252     4.9502 C.ar    
  32 C32            2.2808   -12.4159     3.7559 C.ar    
  33 C33            2.2758   -11.1937     3.0651 C.ar    
  34 O34            1.6103   -13.7076     5.6187 O.3     
  35 C35            0.8915   -13.7584     6.8528 C.3     
  36 F36           -1.0440    -7.5295     1.4911 F       
  37 H37           -0.0469    -0.6737    -0.3411 H       
  38 H38           -3.1408     0.3596    -1.9666 H       
  39 H39           -1.4439     0.8391    -1.7034 H       
  40 H40           -1.6864     0.3869    -4.0653 H       
  41 H41           -2.5236    -1.1489    -3.7449 H       
  42 H42            1.5042    -2.8095    -0.0301 H       
  43 H43           -1.2061    -2.7105    -5.3802 H       
  44 H44            0.0157    -3.0132    -7.4951 H       
  45 H45            2.1322    -1.8172    -7.8783 H       
  46 H46            3.0322    -0.3143    -6.1497 H       
  47 H47            1.8127     0.0034    -4.0357 H       
  48 H48           -0.9630    -5.3098     0.1227 H       
  49 H49            2.5571    -5.7563     3.5508 H       
  50 H50            2.4625    -3.7398     2.1432 H       
  51 H51            3.4653    -9.8596     0.3094 H       
  52 H52            2.2841    -7.8788     1.1545 H       
  53 H53            0.3565    -9.4013     5.2557 H       
  54 H54            0.3905   -11.5396     6.4219 H       
  55 H55            2.8113   -13.2657     3.3524 H       
  56 H56            1.3083   -13.0280     7.5463 H       
  57 H57           -0.1585   -13.5291     6.6713 H       
  58 H58            0.9766   -14.7567     7.2820 H       
@<TRIPOS>BOND
   1    1    2 am
   2    1    6 1
   3    1   10 1
   4    2    3 1
   5    2   16 2
   6    3    4 1
   7    3    7 1
   8    3   37 1
   9    4    5 1
  10    5    6 1
  11    5   38 1
  12    5   39 1
  13    6   40 1
  14    6   41 1
  15    7    8 2
  16    7    9 am
  17    9   17 1
  18    9   42 1
  19   10   11 ar
  20   10   15 ar
  21   11   12 ar
  22   11   43 1
  23   12   13 ar
  24   12   44 1
  25   13   14 ar
  26   13   45 1
  27   14   15 ar
  28   14   46 1
  29   15   47 1
  30   17   18 ar
  31   17   22 ar
  32   18   19 ar
  33   18   48 1
  34   19   20 ar
  35   19   36 1
  36   20   21 ar
  37   20   23 1
  38   21   22 ar
  39   21   49 1
  40   22   50 1
  41   23   27 1
  42   24   25 ar
  43   24   33 ar
  44   25   26 ar
  45   25   51 1
  46   26   27 ar
  47   26   52 1
  48   27   28 ar
  49   28   29 ar
  50   28   33 ar
  51   29   30 ar
  52   29   53 1
  53   30   31 ar
  54   30   54 1
  55   31   32 ar
  56   31   34 1
  57   32   33 ar
  58   32   55 1
  59   34   35 1
  60   35   56 1
  61   35   57 1
  62   35   58 1

#	End of record

