#	Name: ASD01411170
#	Creating user name:	WinNT
#	Creation time:	15. 06. 2019 19:19

#	Modifying user name:	WinNT
#	Modification time:	15. 06. 2019 19:19

#	Program:	/corina/corina34_cracker 3.40 0067  02.08.2006

@<TRIPOS>MOLECULE
ASD01411170
  48   50    0    0    0
SMALL
NO_CHARGES


@<TRIPOS>ATOM
   1 C1             2.0332     1.4769    -0.5475 C.ar    
   2 C2             2.1353     0.1041    -0.4193 C.ar    
   3 C3             1.4555    -0.5480     0.5921 C.ar    
   4 C4             0.6737     0.1726     1.4759 C.ar    
   5 C5             0.5724     1.5451     1.3483 C.ar    
   6 C6             1.2513     2.1972     0.3357 C.ar    
   7 C7             1.5660    -2.0445     0.7313 C.3     
   8 C8             2.7794     2.1886    -1.6464 C.3     
   9 S9             1.1211     3.9468     0.1723 S.o2    
  10 O10            0.1941     4.3742     1.1608 O.2     
  11 O11            2.4504     4.4419     0.0875 O.2     
  12 N12            0.4144     4.2509    -1.2941 N.am    
  13 C13           -0.8706     3.7842    -1.5578 C.2     
  14 C14           -1.8499     3.7131    -0.5947 C.2     
  15 C15           -1.2688     3.3611    -2.8048 C.2     
  16 S16           -2.9493     2.8481    -2.7452 S.3     
  17 C17           -3.0472     3.2318    -1.0326 C.2     
  18 C18           -0.4511     3.3417    -3.9585 C.2     
  19 O19            0.7039     3.7200    -3.8922 O.2     
  20 O20           -0.9516     2.9038    -5.1332 O.3     
  21 C21           -4.2496     3.0602    -0.1932 C.ar    
  22 C22           -5.4266     2.5553    -0.7539 C.ar    
  23 C23           -6.5395     2.3966     0.0213 C.ar    
  24 C24           -6.5014     2.7394     1.3786 C.ar    
  25 C25           -5.3217     3.2446     1.9392 C.ar    
  26 C26           -4.2085     3.3974     1.1630 C.ar    
  27 C27           -7.6986     2.5695     2.2140 C.2     
  28 C28           -7.6960     3.0523     3.6415 C.3     
  29 O29           -8.6887     2.0408     1.7544 O.2     
  30 H30            2.7460    -0.4588    -1.1097 H       
  31 H31            0.1420    -0.3370     2.2658 H       
  32 H32           -0.0389     2.1079     2.0383 H       
  33 H33            2.4033    -2.2877     1.3854 H       
  34 H34            0.6442    -2.4387     1.1591 H       
  35 H35            1.7305    -2.4895    -0.2501 H       
  36 H36            2.1834     2.1738    -2.5590 H       
  37 H37            2.9647     3.2211    -1.3502 H       
  38 H38            3.7298     1.6857    -1.8250 H       
  39 H39            0.8957     4.7542    -1.9694 H       
  40 H40           -1.6830     4.0147     0.4288 H       
  41 H41           -0.3186     2.9277    -5.8638 H       
  42 H42           -5.4558     2.2911    -1.8007 H       
  43 H43           -7.4488     2.0073    -0.4122 H       
  44 H44           -5.2910     3.5093     2.9858 H       
  45 H45           -3.2973     3.7829     1.5961 H       
  46 H46           -6.7009     3.4136     3.9011 H       
  47 H47           -8.4170     3.8623     3.7525 H       
  48 H48           -7.9683     2.2303     4.3036 H       
@<TRIPOS>BOND
   1    1    2 ar
   2    1    6 ar
   3    1    8 1
   4    2    3 ar
   5    2   30 1
   6    3    4 ar
   7    3    7 1
   8    4    5 ar
   9    4   31 1
  10    5    6 ar
  11    5   32 1
  12    6    9 1
  13    7   33 1
  14    7   34 1
  15    7   35 1
  16    8   36 1
  17    8   37 1
  18    8   38 1
  19    9   10 2
  20    9   11 2
  21    9   12 am
  22   12   13 1
  23   12   39 1
  24   13   15 2
  25   13   14 1
  26   14   17 2
  27   14   40 1
  28   15   16 1
  29   15   18 1
  30   16   17 1
  31   17   21 1
  32   18   19 2
  33   18   20 1
  34   20   41 1
  35   21   22 ar
  36   21   26 ar
  37   22   23 ar
  38   22   42 1
  39   23   24 ar
  40   23   43 1
  41   24   25 ar
  42   24   27 1
  43   25   26 ar
  44   25   44 1
  45   26   45 1
  46   27   28 1
  47   27   29 2
  48   28   46 1
  49   28   47 1
  50   28   48 1

#	End of record

