#	Name: ASD03092861
#	Creating user name:	WinNT
#	Creation time:	15. 06. 2019 20:33

#	Modifying user name:	WinNT
#	Modification time:	15. 06. 2019 20:33

#	Program:	/corina/corina34_cracker 3.40 0067  02.08.2006

@<TRIPOS>MOLECULE
ASD03092861
  42   45    0    0    0
SMALL
NO_CHARGES


@<TRIPOS>ATOM
   1 Cl1           -3.7680     1.3334     2.9132 Cl      
   2 C2            -3.0369     2.8015     2.3441 C.ar    
   3 C3            -2.5560     2.8712     1.0439 C.ar    
   4 C4            -1.9739     4.0306     0.5795 C.ar    
   5 C5            -1.8695     5.1348     1.4210 C.ar    
   6 C6            -1.3221     6.4950     1.2626 C.2     
   7 C7            -1.5114     7.1292     2.4568 C.2     
   8 N8            -2.1203     6.2908     3.3290 N.pl3   
   9 H9            -2.3580     6.5188     4.2414 H       
  10 C10           -2.3554     5.0667     2.7368 C.ar    
  11 C11           -2.9445     3.8900     3.1863 C.ar    
  12 C12           -0.6969     7.0564     0.0583 C.2     
  13 O13           -0.5047     6.3493    -0.9138 O.2     
  14 C14           -0.3018     8.4771     0.0264 C.ar    
  15 C15            1.0431     8.8455     0.1451 C.ar    
  16 C16            1.3615    10.1916     0.1092 C.ar    
  17 C17            0.3532    11.1267    -0.0413 C.ar    
  18 N18           -0.9088    10.7596    -0.1512 N.ar    
  19 C19           -1.2687     9.4857    -0.1296 C.ar    
  20 N20           -2.6033     9.1458    -0.2550 N.pl3   
  21 C21           -3.6249    10.1946    -0.3040 C.3     
  22 C22           -3.8320    10.6631    -1.7591 C.3     
  23 C23           -5.0439     9.8361    -2.2555 C.3     
  24 C24           -5.9580     9.7854    -1.0061 C.3     
  25 C25           -4.9766     9.6366     0.1748 C.3     
  26 H26           -2.6380     2.0128     0.3936 H       
  27 H27           -1.6000     4.0824    -0.4324 H       
  28 H28           -1.2190     8.1461     2.6735 H       
  29 H29           -3.3254     3.8270     4.1949 H       
  30 H30            1.8134     8.0977     0.2622 H       
  31 H31            2.3897    10.5099     0.1985 H       
  32 H32            0.6040    12.1768    -0.0690 H       
  33 H33           -2.8629     8.2128    -0.3106 H       
  34 H34           -3.3259    11.0362     0.3210 H       
  35 H35           -4.0597    11.7286    -1.7881 H       
  36 H36           -2.9491    10.4442    -2.3597 H       
  37 H37           -5.5451    10.3423    -3.0805 H       
  38 H38           -4.7334     8.8330    -2.5479 H       
  39 H39           -6.5290    10.7092    -0.9135 H       
  40 H40           -6.6265     8.9261    -1.0571 H       
  41 H41           -4.8725     8.5854     0.4436 H       
  42 H42           -5.3340    10.2079     1.0316 H       
@<TRIPOS>BOND
   1    1    2 1
   2    2   11 ar
   3    2    3 ar
   4    3    4 ar
   5    3   26 1
   6    4    5 ar
   7    4   27 1
   8    5   10 ar
   9    5    6 1
  10    6    7 2
  11    6   12 1
  12    7    8 1
  13    7   28 1
  14    8    9 1
  15    8   10 1
  16   10   11 ar
  17   11   29 1
  18   12   13 2
  19   12   14 1
  20   14   19 ar
  21   14   15 ar
  22   15   16 ar
  23   15   30 1
  24   16   17 ar
  25   16   31 1
  26   17   18 ar
  27   17   32 1
  28   18   19 ar
  29   19   20 1
  30   20   21 1
  31   20   33 1
  32   21   25 1
  33   21   22 1
  34   21   34 1
  35   22   23 1
  36   22   35 1
  37   22   36 1
  38   23   24 1
  39   23   37 1
  40   23   38 1
  41   24   25 1
  42   24   39 1
  43   24   40 1
  44   25   41 1
  45   25   42 1

#	End of record

