#	Name: ASD05740210
#	Creating user name:	WinNT
#	Creation time:	15. 06. 2019 21:03

#	Modifying user name:	WinNT
#	Modification time:	15. 06. 2019 21:03

#	Program:	/corina/corina34_cracker 3.40 0067  02.08.2006

@<TRIPOS>MOLECULE
ASD05740210
  61   65    0    0    0
SMALL
NO_CHARGES


@<TRIPOS>ATOM
   1 C1             0.5496    -0.7941    -2.6533 C.3     
   2 N2            -0.0016    -0.3291    -1.3729 N.3     
   3 C3            -1.3260    -0.7520    -1.2139 C.ar    
   4 C4            -2.0296    -0.4147    -0.0650 C.ar    
   5 C5            -3.3363    -0.8321     0.0919 C.ar    
   6 C6            -3.9469    -1.5896    -0.8990 C.ar    
   7 C7            -3.2434    -1.9273    -2.0476 C.ar    
   8 C8            -1.9388    -1.5043    -2.2075 C.ar    
   9 N9            -5.2725    -2.0134    -0.7396 N.pl3   
  10 C10           -6.2086    -1.1606    -0.1881 C.ar    
  11 N11           -5.8532     0.0912     0.0801 N.ar    
  12 N12           -7.4285    -1.6204     0.0485 N.ar    
  13 C13           -8.3528    -0.8293     0.5775 C.ar    
  14 C14           -8.0094     0.5067     0.8811 C.ar    
  15 C15           -6.7097     0.9474     0.6077 C.ar    
  16 N16           -9.6235    -1.2758     0.8335 N.am    
  17 C17          -10.5484    -0.4599     1.3697 C.2     
  18 C18          -10.2590     0.8816     1.6912 C.2     
  19 C19           -9.0182     1.3865     1.4634 C.2     
  20 C20           -9.9791    -2.6615     0.5179 C.3     
  21 O21          -11.6678    -0.8922     1.5833 O.2     
  22 C22           -9.8910    -3.4998     1.7671 C.ar    
  23 C23           -8.6688    -3.9933     2.1837 C.ar    
  24 C24           -7.4244    -3.6929     1.3886 C.3     
  25 C25            0.8329    -0.7776    -0.2495 C.3     
  26 C26            2.2515    -0.2291    -0.4205 C.3     
  27 N27            2.8027    -0.6941    -1.7009 N.3     
  28 C28            1.9682    -0.2456    -2.8243 C.3     
  29 C29            4.1931    -0.2501    -1.8678 C.3     
  30 C30           -8.5878    -4.7618     3.3298 C.ar    
  31 C31           -9.7291    -5.0381     4.0596 C.ar    
  32 C32          -10.9516    -4.5457     3.6438 C.ar    
  33 C33          -11.0324    -3.7708     2.5002 C.ar    
  34 Cl34         -12.5676    -3.1514     1.9776 Cl      
  35 H35            0.5775    -1.8837    -2.6630 H       
  36 H36           -0.0786    -0.4388    -3.4702 H       
  37 H37           -1.5544     0.1738     0.7059 H       
  38 H38           -3.8834    -0.5698     0.9853 H       
  39 H39           -3.7181    -2.5170    -2.8179 H       
  40 H40           -1.3916    -1.7670    -3.1008 H       
  41 H41           -5.5330    -2.9057    -1.0166 H       
  42 H42           -6.4124     1.9622     0.8273 H       
  43 H43          -11.0255     1.5099     2.1202 H       
  44 H44           -8.7846     2.4126     1.7060 H       
  45 H45          -10.9966    -2.6958     0.1283 H       
  46 H46           -9.2900    -3.0519    -0.2310 H       
  47 H47           -6.9774    -2.7666     1.7495 H       
  48 H48           -6.7124    -4.5098     1.5058 H       
  49 H49           -7.6835    -3.5850     0.3353 H       
  50 H50            0.4113    -0.4103     0.6861 H       
  51 H51            0.8640    -1.8670    -0.2319 H       
  52 H52            2.2237     0.8605    -0.4108 H       
  53 H53            2.8797    -0.5844     0.3964 H       
  54 H54            2.3898    -0.6129    -3.7599 H       
  55 H55            1.9371     0.8439    -2.8419 H       
  56 H56            4.8025    -0.6520    -1.0584 H       
  57 H57            4.5765    -0.6078    -2.8234 H       
  58 H58            4.2318     0.8390    -1.8455 H       
  59 H59           -7.6327    -5.1468     3.6551 H       
  60 H60           -9.6653    -5.6393     4.9545 H       
  61 H61          -11.8431    -4.7620     4.2138 H       
@<TRIPOS>BOND
   1    1    2 1
   2    1   28 1
   3    1   35 1
   4    1   36 1
   5    2    3 1
   6    2   25 1
   7    3    4 ar
   8    3    8 ar
   9    4    5 ar
  10    4   37 1
  11    5    6 ar
  12    5   38 1
  13    6    7 ar
  14    6    9 1
  15    7    8 ar
  16    7   39 1
  17    8   40 1
  18    9   10 1
  19    9   41 1
  20   10   11 ar
  21   10   12 ar
  22   11   15 ar
  23   12   13 ar
  24   13   14 ar
  25   13   16 1
  26   14   15 ar
  27   14   19 1
  28   15   42 1
  29   16   17 am
  30   16   20 1
  31   17   18 1
  32   17   21 2
  33   18   19 2
  34   18   43 1
  35   19   44 1
  36   20   22 1
  37   20   45 1
  38   20   46 1
  39   22   23 ar
  40   22   33 ar
  41   23   24 1
  42   23   30 ar
  43   24   47 1
  44   24   48 1
  45   24   49 1
  46   25   26 1
  47   25   50 1
  48   25   51 1
  49   26   27 1
  50   26   52 1
  51   26   53 1
  52   27   28 1
  53   27   29 1
  54   28   54 1
  55   28   55 1
  56   29   56 1
  57   29   57 1
  58   29   58 1
  59   30   31 ar
  60   30   59 1
  61   31   32 ar
  62   31   60 1
  63   32   33 ar
  64   32   61 1
  65   33   34 1

#	End of record

