#	Name: ASD01915452
#	Creating user name:	WinNT
#	Creation time:	15. 06. 2019 20:05

#	Modifying user name:	WinNT
#	Modification time:	15. 06. 2019 20:05

#	Program:	/corina/corina34_cracker 3.40 0067  02.08.2006

@<TRIPOS>MOLECULE
ASD01915452
  44   47    0    0    0
SMALL
NO_CHARGES


@<TRIPOS>ATOM
   1 C1             0.0708     1.4813     1.2860 C.ar    
   2 C2             0.1070     0.1128     1.5173 C.ar    
   3 C3             1.3198    -0.5512     1.4796 C.ar    
   4 N4             2.4386     0.0963     1.2278 N.ar    
   5 C5             2.4487     1.4068     1.0007 C.ar    
   6 C6             1.2589     2.1390     1.0236 C.ar    
   7 C7             3.6878     2.0721     0.7312 C.1     
   8 C8             4.7037     2.6175     0.5102 C.1     
   9 C9             5.9428     3.2827     0.2407 C.ar    
  10 C10            7.1329     2.5591     0.2107 C.ar    
  11 C11            5.9622     4.6665    -0.0002 C.ar    
  12 C12            7.1641     5.3083    -0.2620 C.ar    
  13 C13            8.3420     4.5936    -0.2870 C.ar    
  14 C14            8.3346     3.2149    -0.0529 C.ar    
  15 O15            4.8061     5.3750     0.0226 O.3     
  16 C16            4.9001     6.7782    -0.2310 C.3     
  17 C17            9.5992     2.4536    -0.0865 C.2     
  18 O18            9.5802     1.2400    -0.0154 O.2     
  19 N19           10.7746     3.1039    -0.1959 N.am    
  20 C20           10.9605     4.5443    -0.3974 C.3     
  21 C21           12.1127     2.5072    -0.1300 C.3     
  22 C22           12.4441     4.8123    -0.4595 C.ar    
  23 N23           13.1151     5.9397    -0.6261 N.ar    
  24 C24           13.1164     3.6171    -0.3025 C.ar    
  25 C25           14.5031     3.6077    -0.3205 C.ar    
  26 C26           15.1694     4.8098    -0.5010 C.ar    
  27 C27           14.4318     5.9689    -0.6525 C.ar    
  28 F28            5.7239     7.3719     0.7313 F       
  29 F29            5.4437     6.9868    -1.5030 F       
  30 H30           -0.8652     2.0197     1.3060 H       
  31 H31           -0.8040    -0.4286     1.7252 H       
  32 H32            1.3497    -1.6156     1.6597 H       
  33 H33            1.2668     3.2031     0.8393 H       
  34 H34            7.1246     1.4943     0.3914 H       
  35 H35            7.1764     6.3722    -0.4473 H       
  36 H36            9.2739     5.0994    -0.4921 H       
  37 H37            3.9063     7.2234    -0.1831 H       
  38 H38           10.4906     4.8501    -1.3321 H       
  39 H39           10.5205     5.0934     0.4350 H       
  40 H40           12.2558     2.0266     0.8378 H       
  41 H41           12.2306     1.7749    -0.9286 H       
  42 H42           15.0511     2.6853    -0.1965 H       
  43 H43           16.2488     4.8406    -0.5201 H       
  44 H44           14.9415     6.9110    -0.7909 H       
@<TRIPOS>BOND
   1    1    2 ar
   2    1    6 ar
   3    1   30 1
   4    2    3 ar
   5    2   31 1
   6    3    4 ar
   7    3   32 1
   8    4    5 ar
   9    5    6 ar
  10    5    7 1
  11    6   33 1
  12    7    8 3
  13    8    9 1
  14    9   11 ar
  15    9   10 ar
  16   10   14 ar
  17   10   34 1
  18   11   12 ar
  19   11   15 1
  20   12   13 ar
  21   12   35 1
  22   13   14 ar
  23   13   36 1
  24   14   17 1
  25   15   16 1
  26   16   28 1
  27   16   29 1
  28   16   37 1
  29   17   18 2
  30   17   19 am
  31   19   21 1
  32   19   20 1
  33   20   22 1
  34   20   38 1
  35   20   39 1
  36   21   24 1
  37   21   40 1
  38   21   41 1
  39   22   24 ar
  40   22   23 ar
  41   23   27 ar
  42   24   25 ar
  43   25   26 ar
  44   25   42 1
  45   26   27 ar
  46   26   43 1
  47   27   44 1

#	End of record

