#	Name: ASD07300760
#	Creating user name:	WinNT
#	Creation time:	15. 06. 2019 21:10

#	Modifying user name:	WinNT
#	Modification time:	15. 06. 2019 21:10

#	Program:	/corina/corina34_cracker 3.40 0067  02.08.2006

@<TRIPOS>MOLECULE
ASD07300760
  55   60    0    0    0
SMALL
NO_CHARGES


@<TRIPOS>ATOM
   1 N1             0.4510     1.9471     0.9571 N.ar    
   2 C2             0.4724     0.6537     0.7456 C.ar    
   3 C3             1.6635    -0.0694     0.7436 C.ar    
   4 C4             2.8496     0.5703     0.9658 C.ar    
   5 C5             2.8228     1.9595     1.1921 C.ar    
   6 C6             4.0014     2.6847     1.4282 C.ar    
   7 C7             3.9335     4.0277     1.6432 C.ar    
   8 C8             2.7092     4.6923     1.6327 C.ar    
   9 C9             1.5472     4.0204     1.4071 C.ar    
  10 C10            1.5762     2.6334     1.1810 C.ar    
  11 C11           -0.8257    -0.0707     0.4984 C.3     
  12 N12           -1.7506     0.1937     1.6034 N.pl3   
  13 N13           -1.4912    -0.0268     2.9614 N.2     
  14 C14           -2.5449     0.3255     3.6491 C.2     
  15 C15           -3.5235     0.7877     2.7456 C.2     
  16 C16           -2.9975     0.6975     1.4882 C.2     
  17 C17           -6.8729     1.5032     3.9964 C.2     
  18 C18           -7.9494     1.1312     4.8393 C.2     
  19 N19           -5.7481     0.7149     3.9778 N.pl3   
  20 N20           -7.8498     0.0463     5.5812 N.2     
  21 C21           -6.7502    -0.7146     5.5558 C.2     
  22 C22           -5.7001    -0.4025     4.7713 C.2     
  23 N23           -6.6844     2.5131     3.1639 N.2     
  24 C24           -5.4827     2.4052     2.6022 C.2     
  25 C25           -4.8732     1.2854     3.0963 C.2     
  26 N26           -9.0995     1.9034     4.8838 N.pl3   
  27 C27           -9.2825     3.0430     3.9710 C.3     
  28 C28          -10.6535     2.9085     3.2986 C.3     
  29 O29          -11.6553     2.7326     4.3033 O.3     
  30 C30          -11.5015     1.5431     5.0812 C.3     
  31 C31          -10.1763     1.6042     5.8411 C.3     
  32 C32           -4.8916     3.3588     1.5961 C.3     
  33 H33            1.6488    -1.1347     0.5669 H       
  34 H34            3.7821     0.0255     0.9681 H       
  35 H35            4.9564     2.1805     1.4395 H       
  36 H36            4.8407     4.5848     1.8247 H       
  37 H37            2.6816     5.7578     1.8066 H       
  38 H38            0.6064     4.5508     1.4027 H       
  39 H39           -1.2654     0.2799    -0.4353 H       
  40 H40           -0.6368    -1.1421     0.4312 H       
  41 H41           -2.6482     0.2719     4.7228 H       
  42 H42           -3.4907     0.9762     0.5687 H       
  43 H43           -6.7027    -1.5967     6.1771 H       
  44 H44           -4.8225    -1.0319     4.7666 H       
  45 H45           -9.2397     3.9751     4.5343 H       
  46 H46           -8.4995     3.0354     3.2127 H       
  47 H47          -10.8677     3.8102     2.7249 H       
  48 H48          -10.6497     2.0451     2.6332 H       
  49 H49          -12.3256     1.4625     5.7900 H       
  50 H50          -11.5007     0.6748     4.4224 H       
  51 H51           -9.9848     0.6443     6.3207 H       
  52 H52          -10.2250     2.3890     6.5959 H       
  53 H53           -4.3418     4.1424     2.1176 H       
  54 H54           -4.2139     2.8170     0.9365 H       
  55 H55           -5.6915     3.8069     1.0067 H       
@<TRIPOS>BOND
   1    1    2 ar
   2    1   10 ar
   3    2    3 ar
   4    2   11 1
   5    3    4 ar
   6    3   33 1
   7    4    5 ar
   8    4   34 1
   9    5    6 ar
  10    5   10 ar
  11    6    7 ar
  12    6   35 1
  13    7    8 ar
  14    7   36 1
  15    8    9 ar
  16    8   37 1
  17    9   10 ar
  18    9   38 1
  19   11   12 1
  20   11   39 1
  21   11   40 1
  22   12   13 1
  23   12   16 1
  24   13   14 2
  25   14   15 1
  26   14   41 1
  27   15   16 2
  28   15   25 1
  29   16   42 1
  30   17   18 1
  31   17   19 1
  32   17   23 2
  33   18   20 2
  34   18   26 1
  35   19   22 1
  36   19   25 1
  37   20   21 1
  38   21   22 2
  39   21   43 1
  40   22   44 1
  41   23   24 1
  42   24   25 2
  43   24   32 1
  44   26   27 1
  45   26   31 1
  46   27   28 1
  47   27   45 1
  48   27   46 1
  49   28   29 1
  50   28   47 1
  51   28   48 1
  52   29   30 1
  53   30   31 1
  54   30   49 1
  55   30   50 1
  56   31   51 1
  57   31   52 1
  58   32   53 1
  59   32   54 1
  60   32   55 1

#	End of record

