#	Name: ASD01884388
#	Creating user name:	WinNT
#	Creation time:	15. 06. 2019 19:48

#	Modifying user name:	WinNT
#	Modification time:	15. 06. 2019 19:48

#	Program:	/corina/corina34_cracker 3.40 0067  02.08.2006

@<TRIPOS>MOLECULE
ASD01884388
  66   68    0    0    0
SMALL
NO_CHARGES


@<TRIPOS>ATOM
   1 C1            -0.1222     1.9932     0.4582 C.2     
   2 C2            -0.3331     0.6168     0.4382 C.2     
   3 C3            -1.6227     0.1274     0.6504 C.2     
   4 C4            -2.6495     0.9864     0.8716 C.2     
   5 N5            -2.4519     2.3270     0.8924 N.am    
   6 C6            -1.2267     2.8514     0.6994 C.2     
   7 O7            -1.0685     4.0600     0.7217 O.2     
   8 C8            -3.5882     3.2195     1.1343 C.3     
   9 C9             1.1870     2.5328     0.2451 C.1     
  10 N10            2.2255     2.9610     0.0761 N.1     
  11 N11            1.3559    -0.7881     1.4766 N.3     
  12 C12            2.3124    -1.8869     1.2827 C.3     
  13 C13            2.9128    -2.2814     2.6342 C.3     
  14 N14            1.8340    -2.6812     3.5485 N.3     
  15 C15            0.8775    -1.5825     3.7423 C.3     
  16 C16            0.2772    -1.1879     2.3909 C.3     
  17 N17            2.3711    -3.1352     4.8211 N.3     
  18 C18           -3.7287     3.4705     2.6370 C.3     
  19 C19            0.8133    -0.3295     0.1908 C.3     
  20 C20           -4.9155     4.4026     2.8895 C.3     
  21 C21           -6.2109     3.7032     2.4730 C.3     
  22 C22           -4.9808     4.7535     4.3773 C.3     
  23 C23            1.3097    -3.6872     5.6736 C.3     
  24 C24            3.4470    -4.1147     4.6192 C.3     
  25 C25            0.7114    -4.9001     5.0088 C.ar    
  26 C26            1.2148    -6.1579     5.2836 C.ar    
  27 C27            0.6660    -7.2704     4.6738 C.ar    
  28 C28           -0.3866    -7.1253     3.7895 C.ar    
  29 C29           -0.8903    -5.8676     3.5150 C.ar    
  30 C30           -0.3446    -4.7555     4.1285 C.ar    
  31 C31           -0.9846    -8.3381     3.1243 C.3     
  32 F32           -2.0243    -8.8387     3.9152 F       
  33 F33           -1.4849    -7.9815     1.8674 F       
  34 F34            0.0004    -9.3200     2.9727 F       
  35 H35           -1.8039    -0.9372     0.6382 H       
  36 H36           -3.6427     0.5946     1.0336 H       
  37 H37           -3.4215     4.1669     0.6216 H       
  38 H38           -4.5001     2.7573     0.7562 H       
  39 H39            1.7981    -2.7444     0.8490 H       
  40 H40            3.1081    -1.5623     0.6122 H       
  41 H41            3.6009    -3.1155     2.4968 H       
  42 H42            3.4502    -1.4318     3.0553 H       
  43 H43            0.0818    -1.9071     4.4129 H       
  44 H44            1.3918    -0.7249     4.1761 H       
  45 H45           -0.4109    -0.3538     2.5283 H       
  46 H46           -0.2603    -2.0376     1.9698 H       
  47 H47           -3.8953     2.5231     3.1496 H       
  48 H48           -2.8168     3.9327     3.0150 H       
  49 H49            0.4594    -1.1874    -0.3809 H       
  50 H50            1.5938     0.1842    -0.3705 H       
  51 H51           -4.7914     5.3150     2.3062 H       
  52 H52           -6.3350     2.7909     3.0564 H       
  53 H53           -7.0564     4.3673     2.6529 H       
  54 H54           -6.1644     3.4533     1.4131 H       
  55 H55           -4.0579     5.2517     4.6740 H       
  56 H56           -5.8263     5.4175     4.5572 H       
  57 H57           -5.1049     3.8411     4.9606 H       
  58 H58            1.7297    -3.9718     6.6384 H       
  59 H59            0.5349    -2.9350     5.8222 H       
  60 H60            4.2516    -3.6572     4.0435 H       
  61 H61            3.8308    -4.4376     5.5869 H       
  62 H62            3.0569    -4.9763     4.0772 H       
  63 H63            2.0371    -6.2713     5.9745 H       
  64 H64            1.0598    -8.2530     4.8880 H       
  65 H65           -1.7124    -5.7541     2.8239 H       
  66 H66           -0.7382    -3.7728     3.9141 H       
@<TRIPOS>BOND
   1    1    2 2
   2    1    9 1
   3    1    6 1
   4    2    3 1
   5    2   19 1
   6    3    4 2
   7    3   35 1
   8    4    5 1
   9    4   36 1
  10    5    6 am
  11    5    8 1
  12    6    7 2
  13    8   18 1
  14    8   37 1
  15    8   38 1
  16    9   10 3
  17   11   12 1
  18   11   16 1
  19   11   19 1
  20   12   13 1
  21   12   39 1
  22   12   40 1
  23   13   14 1
  24   13   41 1
  25   13   42 1
  26   14   15 1
  27   14   17 1
  28   15   16 1
  29   15   43 1
  30   15   44 1
  31   16   45 1
  32   16   46 1
  33   17   23 1
  34   17   24 1
  35   18   20 1
  36   18   47 1
  37   18   48 1
  38   19   49 1
  39   19   50 1
  40   20   21 1
  41   20   22 1
  42   20   51 1
  43   21   52 1
  44   21   53 1
  45   21   54 1
  46   22   55 1
  47   22   56 1
  48   22   57 1
  49   23   25 1
  50   23   58 1
  51   23   59 1
  52   24   60 1
  53   24   61 1
  54   24   62 1
  55   25   26 ar
  56   25   30 ar
  57   26   27 ar
  58   26   63 1
  59   27   28 ar
  60   27   64 1
  61   28   31 1
  62   28   29 ar
  63   29   30 ar
  64   29   65 1
  65   30   66 1
  66   31   32 1
  67   31   33 1
  68   31   34 1

#	End of record

