#	Name: ASD01815897
#	Creating user name:	WinNT
#	Creation time:	15. 06. 2019 19:34

#	Modifying user name:	WinNT
#	Modification time:	15. 06. 2019 19:34

#	Program:	/corina/corina34_cracker 3.40 0067  02.08.2006

@<TRIPOS>MOLECULE
ASD01815897
  56   61    0    0    0
SMALL
NO_CHARGES


@<TRIPOS>ATOM
   1 C1             0.1064     1.4781     0.3822 C.ar    
   2 C2             0.0862     0.0931     0.3734 C.ar    
   3 C3             1.2565    -0.6272     0.2340 C.ar    
   4 C4             2.4729     0.0370     0.1009 C.ar    
   5 C5             2.4904     1.4412     0.1101 C.ar    
   6 C6             1.3031     2.1567     0.2509 C.ar    
   7 N7             3.6499    -0.6796    -0.0383 N.pl3   
   8 C8             4.8507    -0.0941    -0.1698 C.2     
   9 C9             4.9913     1.2716    -0.1749 C.2     
  10 C10            3.7896     2.1248    -0.0323 C.2     
  11 C11            6.1081     2.2038    -0.2942 C.2     
  12 N12            5.5738     3.4422    -0.2243 N.am    
  13 N13            4.1876     3.3643    -0.0679 N.2     
  14 C14            6.3006     4.6271    -0.2968 C.ar    
  15 O15            7.2871     1.9212    -0.4295 O.2     
  16 C16            3.5813    -2.1430    -0.0416 C.3     
  17 C17            3.4353    -2.6358    -1.4583 C.ar    
  18 C18            4.5551    -2.7846    -2.2558 C.ar    
  19 C19            4.4244    -3.2357    -3.5548 C.ar    
  20 C20            3.1673    -3.5401    -4.0593 C.ar    
  21 C21            2.0450    -3.3900    -3.2559 C.ar    
  22 C22            2.1825    -2.9435    -1.9561 C.ar    
  23 N23            3.0314    -3.9976    -5.3774 N.pl3   
  24 C24            1.8718    -4.3278    -5.9897 C.2     
  25 F25            1.3217     3.5076     0.2591 F       
  26 F26            1.2208    -1.9777     0.2273 F       
  27 C27            2.1689    -4.7196    -7.2503 C.2     
  28 C28            3.5553    -4.6262    -7.4150 C.2     
  29 N29            4.0723    -4.1880    -6.2954 N.2     
  30 C30            6.1917     5.5869     0.7249 C.ar    
  31 C31            7.1416     4.8655    -1.3758 C.ar    
  32 C32            7.7533     6.9923    -0.4428 C.ar    
  33 C33            6.9293     6.7737     0.6384 C.ar    
  34 C34            7.8620     6.0405    -1.4453 C.ar    
  35 C35            5.3108     5.3465     1.8737 C.2     
  36 O36            4.6734     4.3169     1.9443 O.2     
  37 C37            5.1982     6.3788     2.9659 C.3     
  38 H38           -0.8163     2.0294     0.4874 H       
  39 H39           -0.8537    -0.4287     0.4769 H       
  40 H40            5.7292    -0.7135    -0.2740 H       
  41 H41            4.4943    -2.5505     0.3926 H       
  42 H42            2.7229    -2.4678     0.5463 H       
  43 H43            5.5327    -2.5477    -1.8628 H       
  44 H44            5.2993    -3.3511    -4.1775 H       
  45 H45            1.0657    -3.6257    -3.6457 H       
  46 H46            1.3098    -2.8266    -1.3307 H       
  47 H47            0.8858    -4.2868    -5.5511 H       
  48 H48            1.4610    -5.0467    -7.9975 H       
  49 H49            4.1038    -4.8695    -8.3130 H       
  50 H50            7.2323     4.1301    -2.1615 H       
  51 H51            8.3215     7.9085    -0.5084 H       
  52 H52            6.8484     7.5188     1.4161 H       
  53 H53            8.5147     6.2202    -2.2867 H       
  54 H54            5.8389     7.2285     2.7302 H       
  55 H55            4.1639     6.7142     3.0435 H       
  56 H56            5.5101     5.9404     3.9138 H       
@<TRIPOS>BOND
   1    1    2 ar
   2    1    6 ar
   3    1   38 1
   4    2    3 ar
   5    2   39 1
   6    3    4 ar
   7    3   26 1
   8    4    5 ar
   9    4    7 1
  10    5    6 ar
  11    5   10 1
  12    6   25 1
  13    7    8 1
  14    7   16 1
  15    8    9 2
  16    8   40 1
  17    9   10 1
  18    9   11 1
  19   10   13 2
  20   11   12 am
  21   11   15 2
  22   12   13 1
  23   12   14 1
  24   14   30 ar
  25   14   31 ar
  26   16   17 1
  27   16   41 1
  28   16   42 1
  29   17   18 ar
  30   17   22 ar
  31   18   19 ar
  32   18   43 1
  33   19   20 ar
  34   19   44 1
  35   20   21 ar
  36   20   23 1
  37   21   22 ar
  38   21   45 1
  39   22   46 1
  40   23   24 1
  41   23   29 1
  42   24   27 2
  43   24   47 1
  44   27   28 1
  45   27   48 1
  46   28   29 2
  47   28   49 1
  48   30   35 1
  49   30   33 ar
  50   31   34 ar
  51   31   50 1
  52   32   33 ar
  53   32   34 ar
  54   32   51 1
  55   33   52 1
  56   34   53 1
  57   35   36 2
  58   35   37 1
  59   37   54 1
  60   37   55 1
  61   37   56 1

#	End of record

