#	Name: ASD01885741
#	Creating user name:	WinNT
#	Creation time:	15. 06. 2019 19:50

#	Modifying user name:	WinNT
#	Modification time:	15. 06. 2019 19:50

#	Program:	/corina/corina34_cracker 3.40 0067  02.08.2006

@<TRIPOS>MOLECULE
ASD01885741
  57   59    0    0    0
SMALL
NO_CHARGES


@<TRIPOS>ATOM
   1 C1            -0.0160     1.3291     0.0093 C.ar    
   2 C2            -1.2522     2.0239     0.0189 C.ar    
   3 C3            -2.4598     1.2808     0.0210 C.ar    
   4 C4            -2.3703    -0.1044     0.0135 C.ar    
   5 C5            -1.1104    -0.7137     0.0043 C.ar    
   6 N6             0.0021    -0.0041     0.0020 N.ar    
   7 C7             1.1365     3.4282     0.0092 C.ar    
   8 C8            -0.0805     4.1063     0.0248 C.ar    
   9 C9            -1.2606     3.4245     0.0266 C.ar    
  10 C10           -3.7750     1.9611     0.0313 C.ar    
  11 C11           -1.0235    -2.1940    -0.0038 C.2     
  12 C12            2.4228     4.2133     0.0076 C.3     
  13 C13            1.1823     2.0683     0.0019 C.ar    
  14 N14            0.1812    -2.7982    -0.0132 N.am    
  15 O15           -2.0383    -2.8621    -0.0018 O.2     
  16 C16           -4.7577     1.5985    -0.8903 C.ar    
  17 C17           -5.9812     2.2347    -0.8763 C.ar    
  18 C18           -6.2354     3.2328     0.0512 C.ar    
  19 C19           -5.2623     3.5968     0.9685 C.ar    
  20 C20           -4.0376     2.9626     0.9663 C.ar    
  21 F21           -7.4355     3.8531     0.0609 F       
  22 N22            2.8509     4.4547     1.3920 N.3     
  23 C23            4.2079     5.0042     1.4335 C.3     
  24 C24            4.4737     5.6340     2.8044 C.3     
  25 S25            4.3715     4.3345     4.0718 S.o2    
  26 C26            2.7506     3.6043     3.6911 C.3     
  27 C27            2.7127     3.2429     2.2030 C.3     
  28 O28            5.3793     3.3664     3.8141 O.2     
  29 O29            4.3049     4.9498     5.3510 O.2     
  30 H30           -3.2662    -0.7075     0.0151 H       
  31 H31           -0.0888     5.1862     0.0355 H       
  32 H32           -2.1976     3.9615     0.0335 H       
  33 H33            3.1928     3.6481    -0.5175 H       
  34 H34            2.2656     5.1673    -0.4957 H       
  35 H35            2.1340     1.5579    -0.0092 H       
  36 H36            0.9913    -2.2648    -0.0147 H       
  37 H37            0.2380    -3.7665    -0.0184 H       
  38 H38           -4.5605     0.8212    -1.6137 H       
  39 H39           -6.7425     1.9551    -1.5896 H       
  40 H40           -5.4648     4.3756     1.6888 H       
  41 H41           -3.2799     3.2470     1.6815 H       
  42 H42            4.9277     4.2051     1.2566 H       
  43 H43            4.3148     5.7639     0.6592 H       
  44 H44            5.4688     6.0786     2.8158 H       
  45 H45            3.7256     6.4008     3.0057 H       
  46 H46            2.6049     2.7050     4.2896 H       
  47 H47            1.9636     4.3252     3.9125 H       
  48 H48            1.7638     2.7589     1.9720 H       
  49 H49            3.5310     2.5597     1.9754 H       
  50 C50           11.4707    13.3080    11.2562 C.3     
  51 C51           11.4914    11.7781    11.2478 C.3     
  52 H52           12.4933    13.6852    11.2484 H       
  53 H53           10.9435    13.6690    10.3731 H       
  54 H54           10.9605    13.6595    12.1530 H       
  55 H55           12.0186    11.4171    12.1308 H       
  56 H56           10.4688    11.4008    11.2555 H       
  57 H57           12.0016    11.4266    10.3510 H       
@<TRIPOS>BOND
   1    1    6 ar
   2    1   13 ar
   3    1    2 ar
   4    2    3 ar
   5    2    9 ar
   6    3   10 1
   7    3    4 ar
   8    4    5 ar
   9    4   30 1
  10    5   11 1
  11    5    6 ar
  12    7   12 1
  13    7    8 ar
  14    7   13 ar
  15    8    9 ar
  16    8   31 1
  17    9   32 1
  18   10   16 ar
  19   10   20 ar
  20   11   14 am
  21   11   15 2
  22   12   22 1
  23   12   33 1
  24   12   34 1
  25   13   35 1
  26   14   36 1
  27   14   37 1
  28   16   17 ar
  29   16   38 1
  30   17   18 ar
  31   17   39 1
  32   18   19 ar
  33   18   21 1
  34   19   20 ar
  35   19   40 1
  36   20   41 1
  37   22   23 1
  38   22   27 1
  39   23   24 1
  40   23   42 1
  41   23   43 1
  42   24   25 1
  43   24   44 1
  44   24   45 1
  45   25   26 1
  46   25   28 2
  47   25   29 2
  48   26   27 1
  49   26   46 1
  50   26   47 1
  51   27   48 1
  52   27   49 1
  53   50   51 1
  54   50   52 1
  55   50   53 1
  56   50   54 1
  57   51   55 1
  58   51   56 1
  59   51   57 1

#	End of record

