#	Name: ASD01940297
#	Creating user name:	WinNT
#	Creation time:	15. 06. 2019 20:12

#	Modifying user name:	WinNT
#	Modification time:	15. 06. 2019 20:12

#	Program:	/corina/corina34_cracker 3.40 0067  02.08.2006

@<TRIPOS>MOLECULE
ASD01940297
  47   49    0    0    0
SMALL
NO_CHARGES


@<TRIPOS>ATOM
   1 C1            -0.3225     1.0619    -1.9043 C.3     
   2 C2            -0.4945    -0.0593    -2.9310 C.3     
   3 C3             0.8634     0.1639    -2.2623 C.3     
   4 S4            -0.2984     2.7672    -2.5223 S.o2    
   5 O5             0.8615     2.9955    -3.3107 O.2     
   6 O6            -1.5864     3.1474    -2.9868 O.2     
   7 N7            -0.0620     3.6934    -1.1701 N.am    
   8 C8             1.2246     4.1599    -0.8546 C.ar    
   9 C9             1.4251     5.5047    -0.5537 C.ar    
  10 C10            2.6995     5.9614    -0.2417 C.ar    
  11 C11            3.7683     5.0800    -0.2302 C.ar    
  12 C12            3.5703     3.7428    -0.5296 C.ar    
  13 C13            2.3001     3.2789    -0.8363 C.ar    
  14 O14            2.1072     1.9633    -1.1243 O.3     
  15 C15            3.2661     1.1275    -1.1476 C.3     
  16 N16            0.3433     6.3960    -0.5660 N.pl3   
  17 C17            0.5728     7.7732    -0.6440 C.ar    
  18 C18            0.9832     8.3449    -1.8443 C.ar    
  19 C19            1.2090     9.7067    -1.9171 C.ar    
  20 C20            1.0272    10.5000    -0.7978 C.ar    
  21 C21            0.6193     9.9338     0.3961 C.ar    
  22 C22            0.3862     8.5740     0.4745 C.ar    
  23 I23            1.3712    12.5634    -0.9122 I       
  24 F24            1.1612     7.5703    -2.9368 F       
  25 F25            5.0067     5.5264     0.0735 F       
  26 F26            2.8967     7.2657     0.0501 F       
  27 C27           -0.9669     0.8666    -0.5304 C.3     
  28 C28           -0.5479     1.9880     0.3849 C.2     
  29 C29           -1.4541     2.6829     1.0269 C.2     
  30 H30           -1.0668    -0.9360    -2.6278 H       
  31 H31           -0.5932     0.2277    -3.9779 H       
  32 H32            1.6580     0.5978    -2.8693 H       
  33 H33            1.1845    -0.5660    -1.5191 H       
  34 H34           -0.8121     3.9139    -0.5960 H       
  35 H35            4.4061     3.0588    -0.5199 H       
  36 H36            3.9957     1.5376    -1.8458 H       
  37 H37            3.7026     1.0838    -0.1498 H       
  38 H38            2.9838     0.1237    -1.4650 H       
  39 H39           -0.5646     6.0574    -0.5205 H       
  40 H40            1.5280    10.1519    -2.8479 H       
  41 H41            0.4788    10.5560     1.2676 H       
  42 H42            0.0631     8.1340     1.4064 H       
  43 H43           -2.0520     0.8687    -0.6345 H       
  44 H44           -0.6441    -0.0857    -0.1097 H       
  45 H45            0.4995     2.2188     0.5117 H       
  46 H46           -2.5015     2.4521     0.9001 H       
  47 H47           -1.1538     3.4866     1.6829 H       
@<TRIPOS>BOND
   1    1    2 1
   2    1    3 1
   3    1    4 1
   4    1   27 1
   5    2    3 1
   6    2   30 1
   7    2   31 1
   8    3   32 1
   9    3   33 1
  10    4    5 2
  11    4    6 2
  12    4    7 am
  13    7    8 1
  14    7   34 1
  15    8    9 ar
  16    8   13 ar
  17    9   10 ar
  18    9   16 1
  19   10   11 ar
  20   10   26 1
  21   11   12 ar
  22   11   25 1
  23   12   13 ar
  24   12   35 1
  25   13   14 1
  26   14   15 1
  27   15   36 1
  28   15   37 1
  29   15   38 1
  30   16   17 1
  31   16   39 1
  32   17   18 ar
  33   17   22 ar
  34   18   19 ar
  35   18   24 1
  36   19   20 ar
  37   19   40 1
  38   20   21 ar
  39   20   23 1
  40   21   22 ar
  41   21   41 1
  42   22   42 1
  43   27   28 1
  44   27   43 1
  45   27   44 1
  46   28   29 2
  47   28   45 1
  48   29   46 1
  49   29   47 1

#	End of record

