#	Name: ASD01940691
#	Creating user name:	WinNT
#	Creation time:	15. 06. 2019 20:13

#	Modifying user name:	WinNT
#	Modification time:	15. 06. 2019 20:13

#	Program:	/corina/corina34_cracker 3.40 0067  02.08.2006

@<TRIPOS>MOLECULE
ASD01940691
  42   44    0    0    0
SMALL
NO_CHARGES


@<TRIPOS>ATOM
   1 C1             0.4534     0.5330    -1.1703 C.ar    
   2 C2            -0.0602     0.0464     0.0177 C.ar    
   3 C3             0.5490     0.3617     1.2203 C.ar    
   4 C4             1.6766     1.1669     1.2387 C.ar    
   5 C5             2.1971     1.6580     0.0487 C.ar    
   6 C6             1.5819     1.3390    -1.1608 C.ar    
   7 N7             2.1031     1.8314    -2.3647 N.am    
   8 S8             1.0819     2.2486    -3.5998 S.o2    
   9 C9             0.0709     3.5912    -2.9174 C.3     
  10 O10            1.9442     2.7409    -4.6163 O.2     
  11 O11            0.2918     1.0862    -3.8090 O.2     
  12 F12            0.0427    -0.1160     2.3782 F       
  13 F13            2.2689     1.4741     2.4134 F       
  14 N14            3.3374     2.4731     0.0638 N.pl3   
  15 C15            4.5864     1.9331    -0.2538 C.ar    
  16 C16            5.7222     2.7346    -0.2165 C.ar    
  17 C17            4.6973     0.5933    -0.6019 C.ar    
  18 C18            5.9337     0.0624    -0.9148 C.ar    
  19 C19            7.0604     0.8630    -0.8820 C.ar    
  20 C20            6.9553     2.1967    -0.5307 C.ar    
  21 Cl21           5.5906     4.4087     0.2238 Cl      
  22 C22            8.4073     0.2796    -1.2236 C.3     
  23 C23           -1.0467     4.0624    -3.8627 C.3     
  24 C24           -1.9462     4.1670    -2.6198 C.3     
  25 C25           -1.0409     3.1059    -1.9723 C.3     
  26 H26           -0.0221     0.2815    -2.1068 H       
  27 H27           -0.9391    -0.5811     0.0075 H       
  28 H28            3.0620     1.9280    -2.4746 H       
  29 H29            0.6690     4.4055    -2.5083 H       
  30 H30            3.2594     3.4120     0.2946 H       
  31 H31            3.8179    -0.0331    -0.6276 H       
  32 H32            6.0203    -0.9796    -1.1852 H       
  33 H33            7.8375     2.8193    -0.5064 H       
  34 H34            8.5873     0.3832    -2.2937 H       
  35 H35            9.1835     0.8096    -0.6716 H       
  36 H36            8.4253    -0.7761    -0.9527 H       
  37 H37           -0.8424     5.0229    -4.3358 H       
  38 H38           -1.3690     3.3001    -4.5720 H       
  39 H39           -1.9006     5.1388    -2.1282 H       
  40 H40           -2.9672     3.8250    -2.7897 H       
  41 H41           -1.3615     2.0821    -2.1647 H       
  42 H42           -0.8318     3.2941    -0.9192 H       
@<TRIPOS>BOND
   1    1    2 ar
   2    1    6 ar
   3    1   26 1
   4    2    3 ar
   5    2   27 1
   6    3    4 ar
   7    3   12 1
   8    4    5 ar
   9    4   13 1
  10    5    6 ar
  11    5   14 1
  12    6    7 1
  13    7    8 am
  14    7   28 1
  15    8    9 1
  16    8   10 2
  17    8   11 2
  18    9   23 1
  19    9   25 1
  20    9   29 1
  21   14   15 1
  22   14   30 1
  23   15   16 ar
  24   15   17 ar
  25   16   21 1
  26   16   20 ar
  27   17   18 ar
  28   17   31 1
  29   18   19 ar
  30   18   32 1
  31   19   20 ar
  32   19   22 1
  33   20   33 1
  34   22   34 1
  35   22   35 1
  36   22   36 1
  37   23   24 1
  38   23   37 1
  39   23   38 1
  40   24   25 1
  41   24   39 1
  42   24   40 1
  43   25   41 1
  44   25   42 1

#	End of record

