#	Name: ASD02039040
#	Creating user name:	WinNT
#	Creation time:	15. 06. 2019 20:17

#	Modifying user name:	WinNT
#	Modification time:	15. 06. 2019 20:17

#	Program:	/corina/corina34_cracker 3.40 0067  02.08.2006

@<TRIPOS>MOLECULE
ASD02039040
  42   45    0    0    0
SMALL
NO_CHARGES


@<TRIPOS>ATOM
   1 N1            -0.0167     1.2913     0.1695 N.2     
   2 N2            -0.0038     0.0051     0.1970 N.2     
   3 C3             1.2121     1.7351     0.0632 C.2     
   4 O4             2.0224     0.6610     0.0234 O.3     
   5 C5             1.2227    -0.4197     0.1101 C.2     
   6 N6             1.6033     3.0608     0.0032 N.pl3   
   7 C7             0.6407     4.0702    -0.0872 C.ar    
   8 C8             1.6681    -1.8594     0.1070 C.3     
   9 O9             1.7035    -2.3442    -1.2368 O.3     
  10 C10            2.0879    -3.6358    -1.4171 C.ar    
  11 C11            2.1429    -4.1647    -2.6912 C.ar    
  12 C12            2.4298    -4.4171    -0.3161 C.ar    
  13 C13            2.8224    -5.7274    -0.4798 C.ar    
  14 C14            2.8796    -6.2814    -1.7541 C.ar    
  15 C15            2.5395    -5.4937    -2.8702 C.ar    
  16 C16            1.0181     5.4030     0.0147 C.ar    
  17 C17           -0.6950     3.7428    -0.2848 C.ar    
  18 C18           -1.6434     4.7424    -0.3736 C.ar    
  19 C19           -1.2649     6.0684    -0.2660 C.ar    
  20 C20            0.0642     6.3979    -0.0750 C.ar    
  21 N21            3.2700    -7.5923    -1.9390 N.am    
  22 C22            3.3257    -8.1302    -3.1698 C.2     
  23 C23            2.9904    -7.3845    -4.3201 C.2     
  24 C24            2.6037    -6.0899    -4.2060 C.2     
  25 O25            3.6749    -9.2913    -3.2955 O.2     
  26 C26            2.4665     5.7631     0.2234 C.3     
  27 H27            2.5457     3.2897     0.0238 H       
  28 H28            2.6630    -1.9329     0.5461 H       
  29 H29            0.9682    -2.4575     0.6907 H       
  30 H30            1.8809    -3.5560    -3.5440 H       
  31 H31            2.3870    -3.9916     0.6756 H       
  32 H32            3.0860    -6.3240     0.3810 H       
  33 H33           -0.9911     2.7076    -0.3693 H       
  34 H34           -2.6818     4.4886    -0.5276 H       
  35 H35           -2.0087     6.8483    -0.3362 H       
  36 H36            0.3563     7.4343     0.0090 H       
  37 H37            3.5080    -8.1331    -1.1698 H       
  38 H38            3.0457    -7.8455    -5.2952 H       
  39 H39            2.3451    -5.5121    -5.0810 H       
  40 H40            2.9526     5.8889    -0.7440 H       
  41 H41            2.5319     6.6939     0.7867 H       
  42 H42            2.9625     4.9668     0.7784 H       
@<TRIPOS>BOND
   1    1    2 1
   2    1    3 2
   3    2    5 2
   4    3    4 1
   5    3    6 1
   6    4    5 1
   7    5    8 1
   8    6    7 1
   9    6   27 1
  10    7   16 ar
  11    7   17 ar
  12    8    9 1
  13    8   28 1
  14    8   29 1
  15    9   10 1
  16   10   11 ar
  17   10   12 ar
  18   11   15 ar
  19   11   30 1
  20   12   13 ar
  21   12   31 1
  22   13   14 ar
  23   13   32 1
  24   14   15 ar
  25   14   21 1
  26   15   24 1
  27   16   26 1
  28   16   20 ar
  29   17   18 ar
  30   17   33 1
  31   18   19 ar
  32   18   34 1
  33   19   20 ar
  34   19   35 1
  35   20   36 1
  36   21   22 am
  37   21   37 1
  38   22   23 1
  39   22   25 2
  40   23   24 2
  41   23   38 1
  42   24   39 1
  43   26   40 1
  44   26   41 1
  45   26   42 1

#	End of record

