#	Name: ASD01916945
#	Creating user name:	WinNT
#	Creation time:	15. 06. 2019 20:08

#	Modifying user name:	WinNT
#	Modification time:	15. 06. 2019 20:08

#	Program:	/corina/corina34_cracker 3.40 0067  02.08.2006

@<TRIPOS>MOLECULE
ASD01916945
  49   52    0    0    0
SMALL
NO_CHARGES


@<TRIPOS>ATOM
   1 C1            -0.0788     1.3314     0.7038 C.ar    
   2 C2            -0.0884    -0.0828     0.7010 C.ar    
   3 C3            -1.2853    -0.7762     0.5252 C.ar    
   4 C4            -2.4481    -0.0840     0.3423 C.ar    
   5 C5            -2.4501     1.3120     0.3302 C.ar    
   6 C6            -1.2744     2.0215     0.5098 C.ar    
   7 N7             1.0939     1.9722     0.9064 N.2     
   8 C8             2.2293     1.3403     1.0739 C.2     
   9 N9             2.3200    -0.0102     0.9780 N.am    
  10 C10            1.1945    -0.7687     0.8735 C.2     
  11 N11           -3.6478     1.9989     0.1354 N.am    
  12 O12            1.2525    -1.9839     0.9224 O.2     
  13 C13           -4.7599     1.3265    -0.2219 C.2     
  14 C14            3.4188     2.1928     1.4298 C.3     
  15 C15            4.7359     1.5112     1.1317 C.3     
  16 C16            4.7349     0.0552     1.5501 C.3     
  17 C17            3.5941    -0.7195     0.9303 C.3     
  18 C18           -6.0525     2.0407    -0.3366 C.ar    
  19 N19           -6.0837     3.3642    -0.2424 N.ar    
  20 C20           -7.2101     4.0364    -0.3387 C.ar    
  21 C21           -8.4142     3.3820    -0.5431 C.ar    
  22 C22           -8.4272     1.9996    -0.6474 C.ar    
  23 C23           -7.2247     1.3179    -0.5483 C.ar    
  24 C24            6.0579    -0.5842     1.1237 C.3     
  25 C25            4.6176    -0.0230     3.0736 C.3     
  26 O26           -4.7021     0.1343    -0.4499 O.2     
  27 C27           -3.6974     3.4515     0.3190 C.3     
  28 H28           -1.2927    -1.8561     0.5332 H       
  29 H29           -3.3748    -0.6215     0.2055 H       
  30 H30           -1.2837     3.1014     0.4996 H       
  31 H31            3.3675     3.1226     0.8632 H       
  32 H32            3.3773     2.4285     2.4932 H       
  33 H33            4.9309     1.5714     0.0610 H       
  34 H34            5.5320     2.0316     1.6642 H       
  35 H35            3.4869    -1.6667     1.4589 H       
  36 H36            3.8387    -0.9290    -0.1110 H       
  37 H37           -7.1964     5.1132    -0.2569 H       
  38 H38           -9.3337     3.9432    -0.6200 H       
  39 H39           -9.3528     1.4665    -0.8069 H       
  40 H40           -7.1978     0.2410    -0.6253 H       
  41 H41            6.8852    -0.0632     1.6054 H       
  42 H42            6.0669    -1.6330     1.4205 H       
  43 H43            6.1641    -0.5121     0.0412 H       
  44 H44            3.6895     0.4522     3.3913 H       
  45 H45            4.6160    -1.0676     3.3847 H       
  46 H46            5.4636     0.4908     3.5300 H       
  47 H47           -3.5827     3.9439    -0.6467 H       
  48 H48           -4.6559     3.7299     0.7571 H       
  49 H49           -2.8906     3.7616     0.9831 H       
@<TRIPOS>BOND
   1    1    2 ar
   2    1    7 1
   3    1    6 ar
   4    2    3 ar
   5    2   10 1
   6    3    4 ar
   7    3   28 1
   8    4    5 ar
   9    4   29 1
  10    5    6 ar
  11    5   11 1
  12    6   30 1
  13    7    8 2
  14    8    9 1
  15    8   14 1
  16    9   10 am
  17    9   17 1
  18   10   12 2
  19   11   13 am
  20   11   27 1
  21   13   18 1
  22   13   26 2
  23   14   15 1
  24   14   31 1
  25   14   32 1
  26   15   16 1
  27   15   33 1
  28   15   34 1
  29   16   17 1
  30   16   24 1
  31   16   25 1
  32   17   35 1
  33   17   36 1
  34   18   19 ar
  35   18   23 ar
  36   19   20 ar
  37   20   21 ar
  38   20   37 1
  39   21   22 ar
  40   21   38 1
  41   22   23 ar
  42   22   39 1
  43   23   40 1
  44   24   41 1
  45   24   42 1
  46   24   43 1
  47   25   44 1
  48   25   45 1
  49   25   46 1
  50   27   47 1
  51   27   48 1
  52   27   49 1

#	End of record

