#	Name: ASD03330390
#	Creating user name:	WinNT
#	Creation time:	15. 06. 2019 20:37

#	Modifying user name:	WinNT
#	Modification time:	15. 06. 2019 20:37

#	Program:	/corina/corina34_cracker 3.40 0067  02.08.2006

@<TRIPOS>MOLECULE
ASD03330390
  64   68    0    0    0
SMALL
NO_CHARGES


@<TRIPOS>ATOM
   1 C1            -0.2398     1.5776    -0.4225 C.3     
   2 N2            -0.2113     0.1078    -0.3758 N.am    
   3 C3             0.4251    -0.6087    -1.4976 C.3     
   4 C4             1.6973     0.1328    -1.8276 C.2     
   5 N5             2.0203     1.3506    -1.3242 N.pl3   
   6 C6             1.1958     2.1133    -0.3840 C.3     
   7 C7             2.7096    -0.2506    -2.6466 C.2     
   8 N8             3.6354     0.7349    -2.6418 N.2     
   9 C9             3.2271     1.7008    -1.8512 C.2     
  10 C10            3.9555     2.9595    -1.5788 C.ar    
  11 C11            5.0142     3.3479    -2.4002 C.ar    
  12 C12            2.7861    -1.5127    -3.4035 C.2     
  13 O13            1.8844    -2.3250    -3.3240 O.2     
  14 C14            3.9314    -3.0217    -4.9360 C.3     
  15 N15            3.8553    -1.7669    -4.1836 N.am    
  16 C16           -0.7500    -0.5644     0.6608 C.2     
  17 O17           -0.7163    -1.7788     0.6808 O.2     
  18 C18            5.6892     4.5231    -2.1412 C.ar    
  19 C19            5.3181     5.3156    -1.0696 C.ar    
  20 C20            4.2692     4.9359    -0.2513 C.ar    
  21 C21            3.5829     3.7657    -0.5029 C.ar    
  22 C22            4.8487    -2.8516    -6.1853 C.3     
  23 C23            5.0187    -3.5609    -2.7210 C.3     
  24 C24            4.6217    -4.1161    -4.0903 C.3     
  25 O25           -1.3254     0.1099     1.6742 O.3     
  26 C26            3.6989    -5.3255    -3.9272 C.3     
  27 C27            4.6463    -4.1656    -7.0000 C.3     
  28 C28            5.3367    -5.2600    -6.1543 C.3     
  29 C29            5.8912    -4.5042    -4.9083 C.3     
  30 C30            6.2582    -3.1191    -5.5488 C.3     
  31 C31            4.6793    -1.5472    -6.9669 C.3     
  32 C32           -1.8849    -0.6791     2.7572 C.3     
  33 H33           -0.7252     1.9031    -1.3426 H       
  34 H34           -0.7933     1.9582     0.4359 H       
  35 H35            0.6568    -1.6319    -1.2020 H       
  36 H36           -0.2389    -0.6113    -2.3620 H       
  37 H37            1.1993     3.1658    -0.6675 H       
  38 H38            1.5978     2.0054     0.6233 H       
  39 H39            5.3050     2.7300    -3.2368 H       
  40 H40            2.9347    -3.3441    -5.2374 H       
  41 H41            4.5744    -1.1191    -4.2469 H       
  42 H42            6.5091     4.8248    -2.7761 H       
  43 H43            5.8498     6.2344    -0.8708 H       
  44 H44            3.9843     5.5588     0.5837 H       
  45 H45            2.7642     3.4703     0.1366 H       
  46 H46            4.1276    -3.2163    -2.1963 H       
  47 H47            5.5035    -4.3440    -2.1380 H       
  48 H48            5.7079    -2.7268    -2.8530 H       
  49 H49            2.8732    -5.0658    -3.2647 H       
  50 H50            3.3056    -5.6164    -4.9012 H       
  51 H51            4.2605    -6.1560    -3.4993 H       
  52 H52            3.5842    -4.3843    -7.1106 H       
  53 H53            5.1221    -4.0839    -7.9773 H       
  54 H54            4.6140    -6.0168    -5.8492 H       
  55 H55            6.1519    -5.7163    -6.7158 H       
  56 H56            6.6784    -5.0142    -4.3530 H       
  57 H57            7.0374    -3.2122    -6.3054 H       
  58 H58            6.5141    -2.3749    -4.7946 H       
  59 H59            4.8961    -0.7017    -6.3141 H       
  60 H60            5.3666    -1.5387    -7.8128 H       
  61 H61            3.6545    -1.4721    -7.3306 H       
  62 H62           -2.3161    -0.0144     3.5058 H       
  63 H63           -2.6610    -1.3362     2.3646 H       
  64 H64           -1.0978    -1.2789     3.2141 H       
@<TRIPOS>BOND
   1    1    2 1
   2    1    6 1
   3    1   33 1
   4    1   34 1
   5    2    3 1
   6    2   16 am
   7    3    4 1
   8    3   35 1
   9    3   36 1
  10    4    5 1
  11    4    7 2
  12    5    6 1
  13    5    9 1
  14    6   37 1
  15    6   38 1
  16    7    8 1
  17    7   12 1
  18    8    9 2
  19    9   10 1
  20   10   11 ar
  21   10   21 ar
  22   11   18 ar
  23   11   39 1
  24   12   13 2
  25   12   15 am
  26   14   22 1
  27   14   15 1
  28   14   24 1
  29   14   40 1
  30   15   41 1
  31   16   17 2
  32   16   25 1
  33   18   19 ar
  34   18   42 1
  35   19   20 ar
  36   19   43 1
  37   20   21 ar
  38   20   44 1
  39   21   45 1
  40   22   27 1
  41   22   31 1
  42   22   30 1
  43   23   24 1
  44   23   46 1
  45   23   47 1
  46   23   48 1
  47   24   26 1
  48   24   29 1
  49   25   32 1
  50   26   49 1
  51   26   50 1
  52   26   51 1
  53   27   28 1
  54   27   52 1
  55   27   53 1
  56   28   29 1
  57   28   54 1
  58   28   55 1
  59   29   30 1
  60   29   56 1
  61   30   57 1
  62   30   58 1
  63   31   59 1
  64   31   60 1
  65   31   61 1
  66   32   62 1
  67   32   63 1
  68   32   64 1

#	End of record

