#	Name: ASD00111047
#	Creating user name:	WinNT
#	Creation time:	15. 06. 2019 18:30

#	Modifying user name:	WinNT
#	Modification time:	15. 06. 2019 18:30

#	Program:	/corina/corina34_cracker 3.40 0067  02.08.2006

@<TRIPOS>MOLECULE
ASD00111047
  40   42    0    0    0
SMALL
NO_CHARGES


@<TRIPOS>ATOM
   1 C1            -0.0168     1.3889     0.0097 C.ar    
   2 C2             0.0021    -0.0041     0.0020 C.ar    
   3 C3             1.2212    -0.6808    -0.0127 C.ar    
   4 C4             2.3990     0.0391    -0.0194 C.ar    
   5 C5             2.3747     1.4135    -0.0124 C.ar    
   6 C6             1.1705     2.0947     0.0021 C.ar    
   7 C7             3.7256    -0.6920    -0.0336 C.3     
   8 C8             4.3820    -0.4715    -1.4001 C.3     
   9 N9             5.1227     0.7792    -1.4226 N.3     
  10 C10            4.3383     2.0027    -1.3897 C.3     
  11 C11            3.6758     2.1898    -0.0210 C.3     
  12 C12            3.3921     3.6745     0.2161 C.3     
  13 C13           -1.2716    -0.7655     0.0100 C.ar    
  14 C14           -2.4901    -0.0898     0.0251 C.ar    
  15 C15           -1.2534    -2.1587    -0.0034 C.ar    
  16 C16           -2.4410    -2.8619     0.0041 C.ar    
  17 C17           -3.6477    -2.1861     0.0249 C.ar    
  18 C18           -3.6717    -0.8031     0.0325 C.ar    
  19 C19           -4.9411    -2.9594     0.0331 C.3     
  20 F20           -5.3256    -3.2111     1.3544 F       
  21 F21           -5.9353    -2.2120    -0.6075 F       
  22 F22           -4.7633    -4.1728    -0.6401 F       
  23 H23           -0.9591     1.9166     0.0170 H       
  24 H24            1.2438    -1.7606    -0.0184 H       
  25 H25            1.1589     3.1746     0.0074 H       
  26 H26            4.3707    -0.2979     0.7517 H       
  27 H27            3.5598    -1.7574     0.1267 H       
  28 H28            5.0642    -1.2960    -1.6073 H       
  29 H29            3.6095    -0.4446    -2.1686 H       
  30 H30            5.8377     0.7889    -0.7107 H       
  31 H31            4.9908     2.8523    -1.5912 H       
  32 H32            3.5666     1.9545    -2.1580 H       
  33 H33            4.3346     1.8117     0.7608 H       
  34 H34            2.7250     4.0456    -0.5620 H       
  35 H35            2.9209     3.8033     1.1905 H       
  36 H36            4.3282     4.2322     0.1885 H       
  37 H37           -2.5099     0.9900     0.0314 H       
  38 H38           -0.3118    -2.6873    -0.0201 H       
  39 H39           -2.4281    -3.9417    -0.0066 H       
  40 H40           -4.6166    -0.2804     0.0488 H       
@<TRIPOS>BOND
   1    1    2 ar
   2    1    6 ar
   3    1   23 1
   4    2    3 ar
   5    2   13 1
   6    3    4 ar
   7    3   24 1
   8    4    5 ar
   9    4    7 1
  10    5    6 ar
  11    5   11 1
  12    6   25 1
  13    7    8 1
  14    7   26 1
  15    7   27 1
  16    8    9 1
  17    8   28 1
  18    8   29 1
  19    9   10 1
  20    9   30 1
  21   10   11 1
  22   10   31 1
  23   10   32 1
  24   11   12 1
  25   11   33 1
  26   12   34 1
  27   12   35 1
  28   12   36 1
  29   13   14 ar
  30   13   15 ar
  31   14   18 ar
  32   14   37 1
  33   15   16 ar
  34   15   38 1
  35   16   17 ar
  36   16   39 1
  37   17   18 ar
  38   17   19 1
  39   18   40 1
  40   19   20 1
  41   19   21 1
  42   19   22 1

#	End of record

