#	Name: ASD01910365
#	Creating user name:	WinNT
#	Creation time:	15. 06. 2019 19:55

#	Modifying user name:	WinNT
#	Modification time:	15. 06. 2019 19:55

#	Program:	/corina/corina34_cracker 3.40 0067  02.08.2006

@<TRIPOS>MOLECULE
ASD01910365
  45   48    0    0    0
SMALL
NO_CHARGES


@<TRIPOS>ATOM
   1 C1            -0.0173     1.4278     0.0099 C.ar    
   2 C2             0.0021    -0.0041     0.0020 C.1     
   3 C3             0.0180    -1.1779    -0.0044 C.1     
   4 C4             0.0374    -2.6098    -0.0123 C.ar    
   5 C5            -1.1646    -3.3262    -0.0047 C.ar    
   6 C6            -1.1454    -4.6917    -0.0127 C.ar    
   7 C7             0.0749    -5.3739    -0.0280 C.ar    
   8 C8             1.2762    -4.6588    -0.0352 C.ar    
   9 C9             1.2584    -3.2932    -0.0335 C.ar    
  10 C10            0.0949    -6.8500    -0.0362 C.2     
  11 O11           -0.9496    -7.4722    -0.0295 O.2     
  12 N12            1.2711    -7.5079    -0.0509 N.am    
  13 C13            1.1814     2.1464     0.0023 C.ar    
  14 C14            1.1547     3.5253     0.0100 C.ar    
  15 C15           -0.0549     4.1973     0.0257 C.ar    
  16 C16           -1.2459     3.4926     0.0333 C.ar    
  17 C17           -1.2352     2.1136     0.0194 C.ar    
  18 C18            1.2910    -8.9728    -0.0590 C.3     
  19 C19            2.5999    -9.5003    -0.6841 C.3     
  20 C20            2.9343   -10.7537     0.0959 C.ar    
  21 C21            2.2238   -10.7699     1.2813 C.ar    
  22 C22            1.3633    -9.5285     1.3791 C.3     
  23 C23            3.7928   -11.7973    -0.2075 C.ar    
  24 C24            3.9405   -12.8533     0.6701 C.ar    
  25 C25            3.2298   -12.8695     1.8559 C.ar    
  26 C26            2.3736   -11.8296     2.1604 C.ar    
  27 H27           -2.1073    -2.7994     0.0079 H       
  28 H28           -2.0730    -5.2448    -0.0068 H       
  29 H29            2.2185    -5.1864    -0.0463 H       
  30 H30            2.1864    -2.7409    -0.0390 H       
  31 H31            2.1044    -7.0116    -0.0562 H       
  32 H32            2.1262     1.6233    -0.0092 H       
  33 H33            2.0802     4.0819     0.0042 H       
  34 H34           -0.0695     5.2772     0.0324 H       
  35 H35           -2.1861     4.0239     0.0459 H       
  36 H36           -2.1654     1.5649     0.0253 H       
  37 H37            0.4229    -9.3675    -0.5870 H       
  38 H38            2.4470    -9.7393    -1.7365 H       
  39 H39            3.3953    -8.7631    -0.5745 H       
  40 H40            1.8260    -8.7988     2.0437 H       
  41 H41            0.3660    -9.7866     1.7354 H       
  42 H42            4.3483   -11.7854    -1.1336 H       
  43 H43            4.6102   -13.6659     0.4302 H       
  44 H44            3.3439   -13.6947     2.5433 H       
  45 H45            1.8188   -11.8429     3.0869 H       
@<TRIPOS>BOND
   1    1    2 1
   2    1   13 ar
   3    1   17 ar
   4    2    3 3
   5    3    4 1
   6    4    5 ar
   7    4    9 ar
   8    5    6 ar
   9    5   27 1
  10    6    7 ar
  11    6   28 1
  12    7    8 ar
  13    7   10 1
  14    8    9 ar
  15    8   29 1
  16    9   30 1
  17   10   11 2
  18   10   12 am
  19   12   18 1
  20   12   31 1
  21   13   14 ar
  22   13   32 1
  23   14   15 ar
  24   14   33 1
  25   15   16 ar
  26   15   34 1
  27   16   17 ar
  28   16   35 1
  29   17   36 1
  30   18   19 1
  31   18   22 1
  32   18   37 1
  33   19   20 1
  34   19   38 1
  35   19   39 1
  36   20   21 ar
  37   20   23 ar
  38   21   22 1
  39   21   26 ar
  40   22   40 1
  41   22   41 1
  42   23   24 ar
  43   23   42 1
  44   24   25 ar
  45   24   43 1
  46   25   26 ar
  47   25   44 1
  48   26   45 1

#	End of record

