#	Name: ASD01890304
#	Creating user name:	WinNT
#	Creation time:	15. 06. 2019 19:50

#	Modifying user name:	WinNT
#	Modification time:	15. 06. 2019 19:50

#	Program:	/corina/corina34_cracker 3.40 0067  02.08.2006

@<TRIPOS>MOLECULE
ASD01890304
  45   47    0    0    0
SMALL
NO_CHARGES


@<TRIPOS>ATOM
   1 C1            -0.0178     1.4581     0.0101 C.2     
   2 C2             0.0021    -0.0041     0.0020 C.2     
   3 C3             1.1795    -0.6627    -0.0128 C.2     
   4 C4             1.1999    -2.1695    -0.0210 C.3     
   5 C5             1.3188    -2.6700    -1.4620 C.3     
   6 O6             1.0271     2.0805     0.0034 O.2     
   7 O7            -1.1951     2.1167     0.0192 O.3     
   8 C8             2.4439     0.0905    -0.0208 C.ar    
   9 C9             2.7967     0.8833     1.0760 C.ar    
  10 C10            3.9833     1.5855     1.0610 C.ar    
  11 C11            4.8240     1.5076    -0.0357 C.ar    
  12 C12            4.4816     0.7256    -1.1251 C.ar    
  13 C13            3.3015     0.0125    -1.1228 C.ar    
  14 N14            2.0566    -6.2772    -1.4881 N.pl3   
  15 C15            2.4290    -4.9606    -1.4844 C.2     
  16 C16            1.3392    -4.1769    -1.4703 C.2     
  17 C17            0.1737    -5.0642    -1.4644 C.ar    
  18 C18           -1.2066    -4.8533    -1.4507 C.ar    
  19 C19           -2.0561    -5.9233    -1.4487 C.ar    
  20 C20           -1.5582    -7.2192    -1.4602 C.ar    
  21 C21           -0.2003    -7.4500    -1.4734 C.ar    
  22 C22            0.6833    -6.3753    -1.4761 C.ar    
  23 C23           -1.1397     3.5446     0.0267 C.3     
  24 C24           -2.5613     4.1101     0.0365 C.3     
  25 H25           -0.9258    -0.5567     0.0079 H       
  26 H26            2.0522    -2.5245     0.5584 H       
  27 H27            0.2777    -2.5478     0.4201 H       
  28 H28            0.4666    -2.3150    -2.0414 H       
  29 H29            2.2410    -2.2917    -1.9031 H       
  30 H30            2.1414     0.9456     1.9322 H       
  31 H31            4.2572     2.1982     1.9072 H       
  32 H32            5.7518     2.0603    -0.0416 H       
  33 H33            5.1425     0.6705    -1.9775 H       
  34 H34            3.0378    -0.6008    -1.9717 H       
  35 H35            2.6688    -7.0295    -1.5014 H       
  36 H36            3.4486    -4.6047    -1.4915 H       
  37 H37           -1.6011    -3.8480    -1.4413 H       
  38 H38           -3.1236    -5.7597    -1.4377 H       
  39 H39           -2.2424    -8.0548    -1.4585 H       
  40 H40            0.1773    -8.4618    -1.4819 H       
  41 H41           -0.6079     3.8829     0.9160 H       
  42 H42           -0.6164     3.8926    -0.8639 H       
  43 H43           -3.0931     3.7718    -0.8528 H       
  44 H44           -3.0846     3.7622     0.9271 H       
  45 H45           -2.5190     5.1993     0.0423 H       
@<TRIPOS>BOND
   1    1    2 1
   2    1    6 2
   3    1    7 1
   4    2    3 2
   5    2   25 1
   6    3    4 1
   7    3    8 1
   8    4    5 1
   9    4   26 1
  10    4   27 1
  11    5   16 1
  12    5   28 1
  13    5   29 1
  14    7   23 1
  15    8    9 ar
  16    8   13 ar
  17    9   10 ar
  18    9   30 1
  19   10   11 ar
  20   10   31 1
  21   11   12 ar
  22   11   32 1
  23   12   13 ar
  24   12   33 1
  25   13   34 1
  26   14   15 1
  27   14   22 1
  28   14   35 1
  29   15   16 2
  30   15   36 1
  31   16   17 1
  32   17   18 ar
  33   17   22 ar
  34   18   19 ar
  35   18   37 1
  36   19   20 ar
  37   19   38 1
  38   20   21 ar
  39   20   39 1
  40   21   22 ar
  41   21   40 1
  42   23   24 1
  43   23   41 1
  44   23   42 1
  45   24   43 1
  46   24   44 1
  47   24   45 1

#	End of record

