#	Name: ASD07301617
#	Creating user name:	WinNT
#	Creation time:	15. 06. 2019 21:11

#	Modifying user name:	WinNT
#	Modification time:	15. 06. 2019 21:11

#	Program:	/corina/corina34_cracker 3.40 0067  02.08.2006

@<TRIPOS>MOLECULE
ASD07301617
  50   53    0    0    0
SMALL
NO_CHARGES


@<TRIPOS>ATOM
   1 C1             0.7671    -0.3195     1.0659 C.2     
   2 N2             0.0021    -0.0041     0.0020 N.am    
   3 O3             1.8652     0.1843     1.1953 O.2     
   4 O4             0.3121    -1.1886     1.9883 O.3     
   5 C5            -1.2142    -0.6684    -0.2083 C.ar    
   6 C6            -2.4110     0.0309    -0.1239 C.ar    
   7 C7            -3.6087    -0.6233    -0.3314 C.ar    
   8 C8            -3.6169    -1.9806    -0.6242 C.ar    
   9 C9            -2.4201    -2.6799    -0.7086 C.ar    
  10 C10           -1.2221    -2.0246    -0.5067 C.ar    
  11 C11            1.1897    -1.4816     3.1074 C.3     
  12 C12            0.4223     0.9873    -0.8932 C.ar    
  13 C13            0.7385     0.6528    -2.2034 C.ar    
  14 C14            1.1522     1.6330    -3.0841 C.ar    
  15 C15            1.2517     2.9462    -2.6624 C.ar    
  16 C16            0.9380     3.2824    -1.3583 C.ar    
  17 C17            0.5182     2.3078    -0.4743 C.ar    
  18 C18           -6.0772    -2.0230    -0.7689 C.ar    
  19 C19           -7.0864    -2.9456    -1.0228 C.ar    
  20 C20           -8.4061    -2.5517    -1.0161 C.ar    
  21 C21           -8.6938    -1.2177    -0.7504 C.ar    
  22 C22           -7.6508    -0.3464    -0.5054 C.ar    
  23 N23           -6.3993    -0.7569    -0.5196 N.ar    
  24 N24           -4.8334    -2.6452    -0.8341 N.am    
  25 C25           -6.4042    -4.2709    -1.2637 C.3     
  26 C26           -4.9303    -3.9542    -1.1208 C.2     
  27 O27           -4.0106    -4.7361    -1.2382 O.2     
  28 C28           -6.8441    -5.2986    -0.2191 C.3     
  29 C29           -6.7013    -4.7785    -2.6761 C.3     
  30 H30           -2.4047     1.0864     0.1045 H       
  31 H31           -4.5395    -0.0794    -0.2658 H       
  32 H32           -2.4265    -3.7357    -0.9359 H       
  33 H33           -0.2911    -2.5676    -0.5764 H       
  34 H34            0.7031    -2.1937     3.7739 H       
  35 H35            2.1212    -1.9091     2.7364 H       
  36 H36            1.4035    -0.5619     3.6519 H       
  37 H37            0.6614    -0.3727    -2.5333 H       
  38 H38            1.3987     1.3735    -4.1031 H       
  39 H39            1.5754     3.7109    -3.3530 H       
  40 H40            1.0173     4.3088    -1.0318 H       
  41 H41            0.2687     2.5717     0.5428 H       
  42 H42           -9.1968    -3.2605    -1.2125 H       
  43 H43           -9.7157    -0.8686    -0.7363 H       
  44 H44           -7.8654     0.6916    -0.2985 H       
  45 H45           -7.9232    -5.4399    -0.2803 H       
  46 H46           -6.3421    -6.2473    -0.4089 H       
  47 H47           -6.5805    -4.9408     0.7762 H       
  48 H48           -6.3374    -4.0555    -3.4061 H       
  49 H49           -6.2014    -5.7346    -2.8313 H       
  50 H50           -7.7769    -4.9071    -2.7972 H       
@<TRIPOS>BOND
   1    1    2 am
   2    1    3 2
   3    1    4 1
   4    2    5 1
   5    2   12 1
   6    4   11 1
   7    5    6 ar
   8    5   10 ar
   9    6    7 ar
  10    6   30 1
  11    7    8 ar
  12    7   31 1
  13    8    9 ar
  14    8   24 1
  15    9   10 ar
  16    9   32 1
  17   10   33 1
  18   11   34 1
  19   11   35 1
  20   11   36 1
  21   12   13 ar
  22   12   17 ar
  23   13   14 ar
  24   13   37 1
  25   14   15 ar
  26   14   38 1
  27   15   16 ar
  28   15   39 1
  29   16   17 ar
  30   16   40 1
  31   17   41 1
  32   18   19 ar
  33   18   23 ar
  34   18   24 1
  35   19   20 ar
  36   19   25 1
  37   20   21 ar
  38   20   42 1
  39   21   22 ar
  40   21   43 1
  41   22   23 ar
  42   22   44 1
  43   24   26 am
  44   25   26 1
  45   25   28 1
  46   25   29 1
  47   26   27 2
  48   28   45 1
  49   28   46 1
  50   28   47 1
  51   29   48 1
  52   29   49 1
  53   29   50 1

#	End of record

