#	Name: ASD01881314
#	Creating user name:	WinNT
#	Creation time:	15. 06. 2019 19:42

#	Modifying user name:	WinNT
#	Modification time:	15. 06. 2019 19:42

#	Program:	/corina/corina34_cracker 3.40 0067  02.08.2006

@<TRIPOS>MOLECULE
ASD01881314
  63   65    0    0    0
SMALL
NO_CHARGES


@<TRIPOS>ATOM
   1 C1            -0.0309     1.1376    -0.0695 C.2     
   2 C2             0.0372    -0.2550     0.4087 C.ar    
   3 C3             1.2805    -0.8722     0.6082 C.ar    
   4 C4             1.3324    -2.1827     1.0583 C.ar    
   5 C5             0.1644    -2.8758     1.3080 C.ar    
   6 C6            -1.0658    -2.2699     1.1122 C.ar    
   7 C7            -1.1365    -0.9662     0.6713 C.ar    
   8 O8             0.9921     1.7543    -0.2920 O.2     
   9 O9            -1.2278     1.7250    -0.2653 O.3     
  10 O10            2.4270    -0.1905     0.3617 O.3     
  11 C11            3.6557    -0.8843     0.5878 C.3     
  12 C12            4.8306     0.0385     0.2580 C.3     
  13 C13            6.1461    -0.7043     0.5000 C.3     
  14 C14            7.3210     0.2186     0.1702 C.3     
  15 O15            8.5497    -0.4752     0.3963 O.3     
  16 C16            9.6964     0.2066     0.1497 C.ar    
  17 C17           10.9264    -0.4110     0.3496 C.ar    
  18 C18           12.0854     0.2686     0.1036 C.ar    
  19 C19           12.0382     1.5921    -0.3515 C.ar    
  20 C20           10.7999     2.2144    -0.5529 C.ar    
  21 C21            9.6377     1.5188    -0.3074 C.ar    
  22 C22           13.4151    -0.4059     0.3226 C.3     
  23 C23           10.9807    -1.8350     0.8397 C.3     
  24 C24           13.2829     2.3251    -0.6162 C.2     
  25 O25           14.3503     1.7533    -0.5452 O.2     
  26 C26           13.2341     3.7877    -0.9760 C.3     
  27 C27           14.6563     4.3058    -1.1991 C.3     
  28 C28           14.6154     5.7641    -1.6885 C.3     
  29 C29           15.3681     6.6035    -0.6356 C.3     
  30 C30           16.3063     5.5867     0.0609 C.3     
  31 C31           15.4325     4.3099     0.1341 C.3     
  32 H32            2.2876    -2.6622     1.2135 H       
  33 H33            0.2103    -3.8966     1.6578 H       
  34 H34           -1.9737    -2.8204     1.3100 H       
  35 H35           -2.0978    -0.4963     0.5247 H       
  36 H36           -1.2219     2.6394    -0.5795 H       
  37 H37            3.7145    -1.1880     1.6330 H       
  38 H38            3.6970    -1.7673    -0.0500 H       
  39 H39            4.7718     0.3422    -0.7872 H       
  40 H40            4.7892     0.9215     0.8957 H       
  41 H41            6.2049    -1.0079     1.5452 H       
  42 H42            6.1875    -1.5872    -0.1377 H       
  43 H43            7.2622     0.5222    -0.8750 H       
  44 H44            7.2797     1.1016     0.8080 H       
  45 H45           10.7569     3.2349    -0.9037 H       
  46 H46            8.6805     1.9933    -0.4659 H       
  47 H47           13.7811    -0.8035    -0.6241 H       
  48 H48           14.1300     0.3185     0.7130 H       
  49 H49           13.2962    -1.2203     1.0371 H       
  50 H50           10.9835    -2.5131    -0.0137 H       
  51 H51           11.8882    -1.9835     1.4248 H       
  52 H52           10.1095    -2.0383     1.4625 H       
  53 H53           12.6525     3.9182    -1.8886 H       
  54 H54           12.7671     4.3461    -0.1646 H       
  55 H55           15.1706     3.6811    -1.9295 H       
  56 H56           15.1106     5.8473    -2.6559 H       
  57 H57           13.5823     6.1027    -1.7670 H       
  58 H58           15.9487     7.3896    -1.1184 H       
  59 H59           14.6685     7.0311     0.0826 H       
  60 H60           17.1986     5.4102    -0.5396 H       
  61 H61           16.5736     5.9296     1.0605 H       
  62 H62           14.7432     4.3671     0.9766 H       
  63 H63           16.0600     3.4222     0.2129 H       
@<TRIPOS>BOND
   1    1    2 1
   2    1    8 2
   3    1    9 1
   4    2    3 ar
   5    2    7 ar
   6    3    4 ar
   7    3   10 1
   8    4    5 ar
   9    4   32 1
  10    5    6 ar
  11    5   33 1
  12    6    7 ar
  13    6   34 1
  14    7   35 1
  15    9   36 1
  16   10   11 1
  17   11   12 1
  18   11   37 1
  19   11   38 1
  20   12   13 1
  21   12   39 1
  22   12   40 1
  23   13   14 1
  24   13   41 1
  25   13   42 1
  26   14   15 1
  27   14   43 1
  28   14   44 1
  29   15   16 1
  30   16   17 ar
  31   16   21 ar
  32   17   18 ar
  33   17   23 1
  34   18   19 ar
  35   18   22 1
  36   19   20 ar
  37   19   24 1
  38   20   21 ar
  39   20   45 1
  40   21   46 1
  41   22   47 1
  42   22   48 1
  43   22   49 1
  44   23   50 1
  45   23   51 1
  46   23   52 1
  47   24   25 2
  48   24   26 1
  49   26   27 1
  50   26   53 1
  51   26   54 1
  52   27   28 1
  53   27   31 1
  54   27   55 1
  55   28   29 1
  56   28   56 1
  57   28   57 1
  58   29   30 1
  59   29   58 1
  60   29   59 1
  61   30   31 1
  62   30   60 1
  63   30   61 1
  64   31   62 1
  65   31   63 1

#	End of record

