#	Name: ASD00843241
#	Creating user name:	WinNT
#	Creation time:	15. 06. 2019 18:46

#	Modifying user name:	WinNT
#	Modification time:	15. 06. 2019 18:46

#	Program:	/corina/corina34_cracker 3.40 0067  02.08.2006

@<TRIPOS>MOLECULE
ASD00843241
  93   98    0    0    0
SMALL
NO_CHARGES


@<TRIPOS>ATOM
   1 N1             1.0008     1.1647    -0.3291 N.ar    
   2 C2             1.1633    -0.1216    -0.5897 C.ar    
   3 C3             1.0322    -1.0698     0.4171 C.ar    
   4 C4             0.7286    -0.6513     1.7007 C.ar    
   5 C5             0.5659     0.7078     1.9329 C.ar    
   6 C6             0.7109     1.5941     0.8846 C.ar    
   7 C7             1.2178    -2.5346     0.1154 C.3     
   8 C8             0.8814    -3.3730     1.3302 C.2     
   9 C9             0.3537    -2.9484    -1.0775 C.3     
  10 C10           -1.0814    -2.5726    -0.8126 C.2     
  11 N11           -2.0466    -2.9481    -1.6751 N.am    
  12 O12           -1.3679    -1.9322     0.1768 O.2     
  13 C13           -3.4351    -2.4968    -1.4974 C.3     
  14 C14           -3.9258    -1.8992    -2.8205 C.3     
  15 N15           -3.7230    -2.8749    -3.8998 N.3     
  16 C16           -2.2967    -3.1706    -4.0899 C.3     
  17 C17           -1.7381    -3.8152    -2.8223 C.3     
  18 C18           -4.3357    -2.4103    -5.1514 C.3     
  19 C19           -3.9989    -3.3886    -6.2801 C.3     
  20 C20           -4.6898    -2.9324    -7.5672 C.3     
  21 N21           -6.1419    -2.8841    -7.3541 N.3     
  22 C22           -6.4931    -1.9162    -6.3072 C.3     
  23 C23           -5.8561    -2.3421    -4.9824 C.3     
  24 C24           -6.8481    -2.5840    -8.6068 C.3     
  25 O25           -0.1933    -3.4328     1.8890 O.2     
  26 N26            1.9974    -4.0382     1.6732 N.am    
  27 C27            2.6740    -2.8401    -0.1505 C.ar    
  28 C28            3.0672    -3.7481     0.8249 C.ar    
  29 C29            3.5625    -2.4016    -1.1063 C.ar    
  30 C30            4.8669    -2.8666    -1.1025 C.ar    
  31 C31            5.2718    -3.7725    -0.1350 C.ar    
  32 C32            4.3803    -4.2129     0.8246 C.ar    
  33 Cl33           5.9909    -2.3172    -2.3059 Cl      
  34 F34            6.5440    -4.2271    -0.1299 F       
  35 C35            1.6726    -6.6848     2.3549 C.ar    
  36 C36            0.3922    -6.9362     1.8843 C.ar    
  37 C37            2.6200    -7.6904     2.3473 C.ar    
  38 C38            2.2929    -8.9462     1.8707 C.ar    
  39 C39            1.0172    -9.1994     1.4010 C.ar    
  40 C40            0.0663    -8.1976     1.4069 C.ar    
  41 H41            0.7641   -10.1813     1.0293 H       
  42 O42           -0.5416    -5.9489     1.8911 O.3     
  43 C43           -1.8390    -6.2795     1.3916 C.3     
  44 C44           -8.3580    -2.6649    -8.3731 C.3     
  45 C45           -6.4792    -1.1750    -9.0753 C.3     
  46 O46            1.4604    -0.5191    -1.8524 O.3     
  47 C47            1.5384     0.4994    -2.8517 C.3     
  48 C48            1.9709    -0.1224    -4.1811 C.3     
  49 F49            3.1849    -0.7958    -4.0078 F       
  50 F50            0.9940    -1.0259    -4.6130 F       
  51 S51            2.0925    -5.0823     2.9551 S.o2    
  52 O52            3.4632    -5.1390     3.3256 O.2     
  53 O53            1.0589    -4.7075     3.8554 O.2     
  54 H54            0.6202    -1.3656     2.5034 H       
  55 H55            0.3282     1.0677     2.9230 H       
  56 H56            0.5857     2.6524     1.0600 H       
  57 H57            0.7036    -2.4371    -1.9743 H       
  58 H58            0.4263    -4.0263    -1.2221 H       
  59 H59           -4.0633    -3.3442    -1.2231 H       
  60 H60           -3.4764    -1.7385    -0.7155 H       
  61 H61           -4.9863    -1.6603    -2.7406 H       
  62 H62           -3.3636    -0.9916    -3.0403 H       
  63 H63           -2.1758    -3.8537    -4.9306 H       
  64 H64           -1.7573    -2.2452    -4.2920 H       
  65 H65           -0.6584    -3.9312    -2.9158 H       
  66 H66           -2.2023    -4.7900    -2.6722 H       
  67 H67           -3.9512    -1.4211    -5.3999 H       
  68 H68           -2.9200    -3.4094    -6.4338 H       
  69 H69           -4.3483    -4.3861    -6.0134 H       
  70 H70           -4.3297    -1.9407    -7.8408 H       
  71 H71           -4.4636    -3.6349    -8.3694 H       
  72 H72           -6.1245    -0.9292    -6.5866 H       
  73 H73           -7.5766    -1.8805    -6.1942 H       
  74 H74           -6.2347    -3.3230    -4.6953 H       
  75 H75           -6.1040    -1.6150    -4.2091 H       
  76 H76           -6.5592    -3.3076    -9.3691 H       
  77 H77            3.2424    -1.6959    -1.8586 H       
  78 H78            4.7024    -4.9187     1.5760 H       
  79 H79            3.6170    -7.4951     2.7136 H       
  80 H80            3.0351    -9.7308     1.8650 H       
  81 H81           -0.9301    -8.3961     1.0406 H       
  82 H82           -2.4860    -5.4044     1.4534 H       
  83 H83           -1.7578    -6.5986     0.3525 H       
  84 H84           -2.2628    -7.0876     1.9878 H       
  85 H85           -8.6469    -1.9413    -7.6108 H       
  86 H86           -8.8819    -2.4422    -9.3026 H       
  87 H87           -8.6207    -3.6687    -8.0394 H       
  88 H88           -6.7681    -0.4514    -8.3130 H       
  89 H89           -5.4036    -1.1174    -9.2418 H       
  90 H90           -7.0032    -0.9523   -10.0047 H       
  91 H91            0.5613     0.9676    -2.9704 H       
  92 H92            2.2670     1.2512    -2.5482 H       
  93 H93            2.0943     0.6632    -4.9266 H       
@<TRIPOS>BOND
   1    1    2 ar
   2    1    6 ar
   3    2    3 ar
   4    2   46 1
   5    3    4 ar
   6    3    7 1
   7    4    5 ar
   8    4   54 1
   9    5    6 ar
  10    5   55 1
  11    6   56 1
  12    7    8 1
  13    7    9 1
  14    7   27 1
  15    8   25 2
  16    8   26 am
  17    9   10 1
  18    9   57 1
  19    9   58 1
  20   10   11 am
  21   10   12 2
  22   11   13 1
  23   11   17 1
  24   13   14 1
  25   13   59 1
  26   13   60 1
  27   14   15 1
  28   14   61 1
  29   14   62 1
  30   15   16 1
  31   15   18 1
  32   16   17 1
  33   16   63 1
  34   16   64 1
  35   17   65 1
  36   17   66 1
  37   18   19 1
  38   18   23 1
  39   18   67 1
  40   19   20 1
  41   19   68 1
  42   19   69 1
  43   20   21 1
  44   20   70 1
  45   20   71 1
  46   21   22 1
  47   21   24 1
  48   22   23 1
  49   22   72 1
  50   22   73 1
  51   23   74 1
  52   23   75 1
  53   24   44 1
  54   24   45 1
  55   24   76 1
  56   26   51 am
  57   26   28 1
  58   27   28 ar
  59   27   29 ar
  60   28   32 ar
  61   29   30 ar
  62   29   77 1
  63   30   31 ar
  64   30   33 1
  65   31   32 ar
  66   31   34 1
  67   32   78 1
  68   35   36 ar
  69   35   37 ar
  70   35   51 1
  71   36   42 1
  72   36   40 ar
  73   37   38 ar
  74   37   79 1
  75   38   39 ar
  76   38   80 1
  77   39   40 ar
  78   39   41 1
  79   40   81 1
  80   42   43 1
  81   43   82 1
  82   43   83 1
  83   43   84 1
  84   44   85 1
  85   44   86 1
  86   44   87 1
  87   45   88 1
  88   45   89 1
  89   45   90 1
  90   46   47 1
  91   47   48 1
  92   47   91 1
  93   47   92 1
  94   48   49 1
  95   48   50 1
  96   48   93 1
  97   51   52 2
  98   51   53 2

#	End of record

