#	Name: ASD05062007
#	Creating user name:	WinNT
#	Creation time:	15. 06. 2019 20:56

#	Modifying user name:	WinNT
#	Modification time:	15. 06. 2019 20:56

#	Program:	/corina/corina34_cracker 3.40 0067  02.08.2006

@<TRIPOS>MOLECULE
ASD05062007
  41   43    0    0    0
SMALL
NO_CHARGES


@<TRIPOS>ATOM
   1 C1            -0.0168     1.3845     0.0097 C.ar    
   2 C2             0.0021    -0.0041     0.0020 C.ar    
   3 C3            -1.1740    -0.7226     0.0094 C.ar    
   4 C4            -2.3940    -0.0554     0.0251 C.ar    
   5 C5            -2.4142     1.3505     0.0333 C.ar    
   6 C6            -1.2149     2.0651     0.0305 C.ar    
   7 N7            -3.5837    -0.7555     0.0322 N.am    
   8 C8            -4.7668    -0.1186     0.0464 C.2     
   9 C9            -4.8532     1.2852     0.0553 C.2     
  10 C10           -3.7126     2.0432     0.0499 C.2     
  11 C11           -3.7840     3.5213     0.0600 C.ar    
  12 C12           -6.2026     1.9560     0.0708 C.3     
  13 C13           -6.9792     1.5505    -1.1554 C.2     
  14 O14           -5.7939    -0.7759     0.0515 O.2     
  15 O15           -6.4875     0.7945    -1.9594 O.2     
  16 O16           -8.2173     2.0294    -1.3544 O.3     
  17 Cl17           1.4776     2.2680     0.0001 Cl      
  18 C18           -3.2985     4.2388     1.1541 C.ar    
  19 C19           -3.3680     5.6166     1.1573 C.ar    
  20 C20           -3.9179     6.2871     0.0791 C.ar    
  21 C21           -4.4010     5.5816    -1.0087 C.ar    
  22 C22           -4.3318     4.2038    -1.0270 C.ar    
  23 C23           -6.9696     1.5299     1.3242 C.3     
  24 C24           -8.2665     2.2933     1.4033 C.2     
  25 C25           -9.4017     1.6474     1.5045 C.2     
  26 H26            0.9475    -0.5260    -0.0102 H       
  27 H27           -1.1482    -1.8023     0.0026 H       
  28 H28           -1.2261     3.1450     0.0368 H       
  29 H29           -3.5653    -1.7253     0.0264 H       
  30 H30           -6.0704     3.0379     0.0759 H       
  31 H31           -8.6761     1.7409    -2.1552 H       
  32 H32           -2.8696     3.7166     1.9966 H       
  33 H33           -2.9926     6.1731     2.0034 H       
  34 H34           -3.9706     7.3658     0.0868 H       
  35 H35           -4.8291     6.1108    -1.8472 H       
  36 H36           -4.7089     3.6543    -1.8768 H       
  37 H37           -7.1793     0.4614     1.2762 H       
  38 H38           -6.3682     1.7428     2.2081 H       
  39 H39           -8.2601     3.3730     1.3765 H       
  40 H40           -9.4081     0.5677     1.5313 H       
  41 H41          -10.3311     2.1945     1.5612 H       
@<TRIPOS>BOND
   1    1    2 ar
   2    1   17 1
   3    1    6 ar
   4    2    3 ar
   5    2   26 1
   6    3    4 ar
   7    3   27 1
   8    4    5 ar
   9    4    7 1
  10    5    6 ar
  11    5   10 1
  12    6   28 1
  13    7    8 am
  14    7   29 1
  15    8    9 1
  16    8   14 2
  17    9   10 2
  18    9   12 1
  19   10   11 1
  20   11   18 ar
  21   11   22 ar
  22   12   13 1
  23   12   23 1
  24   12   30 1
  25   13   15 2
  26   13   16 1
  27   16   31 1
  28   18   19 ar
  29   18   32 1
  30   19   20 ar
  31   19   33 1
  32   20   21 ar
  33   20   34 1
  34   21   22 ar
  35   21   35 1
  36   22   36 1
  37   23   24 1
  38   23   37 1
  39   23   38 1
  40   24   25 2
  41   24   39 1
  42   25   40 1
  43   25   41 1

#	End of record

