#	Name: ASD03731043
#	Creating user name:	WinNT
#	Creation time:	15. 06. 2019 20:45

#	Modifying user name:	WinNT
#	Modification time:	15. 06. 2019 20:45

#	Program:	/corina/corina34_cracker 3.40 0067  02.08.2006

@<TRIPOS>MOLECULE
ASD03731043
  59   64    0    0    0
SMALL
NO_CHARGES


@<TRIPOS>ATOM
   1 O1            -0.0174     1.4356     0.0099 O.3     
   2 C2             0.0021    -0.0041     0.0020 C.3     
   3 O3             1.2461    -0.3262    -0.6470 O.3     
   4 C4             2.0710     0.7345    -0.4034 C.ar    
   5 C5             1.2935     1.8178    -0.0005 C.ar    
   6 C6             3.4452     0.8649    -0.4936 C.ar    
   7 C7             4.0602     2.0747    -0.1856 C.ar    
   8 C8             3.2723     3.1522     0.2076 C.ar    
   9 C9             1.9024     3.0234     0.3045 C.ar    
  10 O10            5.3831     2.4065    -0.1922 O.3     
  11 C11            4.2098     4.3069     0.4393 C.3     
  12 C12            5.5129     3.8410    -0.2242 C.3     
  13 N13            3.6127     6.4762     0.8417 N.am    
  14 C14            3.6993     5.5834    -0.1645 C.2     
  15 C15            4.3992     4.6044     1.8972 C.ar    
  16 C16            4.8378     3.8614     2.9705 C.ar    
  17 C17            4.9039     4.4334     4.2285 C.ar    
  18 C18            4.5284     5.7527     4.4051 C.ar    
  19 C19            4.0877     6.5009     3.3334 C.ar    
  20 C20            4.0181     5.9334     2.0634 C.ar    
  21 O21            3.4201     5.7739    -1.3293 O.2     
  22 C22            3.1483     7.8554     0.6736 C.3     
  23 C23            1.6327     7.9114     0.8755 C.3     
  24 O24           -0.2686     9.4041     0.8886 O.3     
  25 C25            1.1476     9.3518     0.6999 C.3     
  26 O26            1.7881    10.1912     1.6638 O.3     
  27 C27            1.3784    11.5606     1.5989 C.3     
  28 C28           -0.1396    11.6356     1.7962 C.3     
  29 C29           -0.8178    10.7201     0.7711 C.3     
  30 C30           -0.4962    11.1741     3.2107 C.3     
  31 C31           -0.6129    13.0758     1.5895 C.3     
  32 C32            1.4927     9.8379    -0.7092 C.3     
  33 H33           -0.0105    -0.3928     1.0203 H       
  34 H34           -0.8401    -0.3953    -0.5687 H       
  35 H35            4.0448     0.0222    -0.8046 H       
  36 H36            1.3032     3.8652     0.6186 H       
  37 H37            6.3787     4.1643     0.3536 H       
  38 H38            5.5749     4.2013    -1.2510 H       
  39 H39            5.1300     2.8312     2.8302 H       
  40 H40            5.2475     3.8510     5.0706 H       
  41 H41            4.5803     6.1993     5.3870 H       
  42 H42            3.7954     7.5303     3.4796 H       
  43 H43            3.6366     8.4954     1.4085 H       
  44 H44            3.3941     8.2017    -0.3303 H       
  45 H45            1.1443     7.2714     0.1406 H       
  46 H46            1.3868     7.5650     1.8794 H       
  47 H47            1.8769    12.1283     2.3846 H       
  48 H48            1.6407    11.9743     0.6252 H       
  49 H49           -0.6387    11.1019    -0.2340 H       
  50 H50           -1.8900    10.6867     0.9648 H       
  51 H51           -0.0039    11.8194     3.9383 H       
  52 H52           -1.5760    11.2281     3.3491 H       
  53 H53           -0.1627    10.1461     3.3524 H       
  54 H54           -0.3623    13.3992     0.5791 H       
  55 H55           -1.6925    13.1272     1.7301 H       
  56 H56           -0.1209    13.7272     2.3119 H       
  57 H57            1.0044     9.1979    -1.4441 H       
  58 H58            1.1471    10.8641    -0.8343 H       
  59 H59            2.5724     9.7980    -0.8530 H       
@<TRIPOS>BOND
   1    1    2 1
   2    1    5 1
   3    2    3 1
   4    2   33 1
   5    2   34 1
   6    3    4 1
   7    4    5 ar
   8    4    6 ar
   9    5    9 ar
  10    6    7 ar
  11    6   35 1
  12    7    8 ar
  13    7   10 1
  14    8    9 ar
  15    8   11 1
  16    9   36 1
  17   10   12 1
  18   11   12 1
  19   11   14 1
  20   11   15 1
  21   12   37 1
  22   12   38 1
  23   13   14 am
  24   13   20 1
  25   13   22 1
  26   14   21 2
  27   15   16 ar
  28   15   20 ar
  29   16   17 ar
  30   16   39 1
  31   17   18 ar
  32   17   40 1
  33   18   19 ar
  34   18   41 1
  35   19   20 ar
  36   19   42 1
  37   22   23 1
  38   22   43 1
  39   22   44 1
  40   23   25 1
  41   23   45 1
  42   23   46 1
  43   24   25 1
  44   24   29 1
  45   25   26 1
  46   25   32 1
  47   26   27 1
  48   27   28 1
  49   27   47 1
  50   27   48 1
  51   28   29 1
  52   28   30 1
  53   28   31 1
  54   29   49 1
  55   29   50 1
  56   30   51 1
  57   30   52 1
  58   30   53 1
  59   31   54 1
  60   31   55 1
  61   31   56 1
  62   32   57 1
  63   32   58 1
  64   32   59 1

#	End of record

