#	Name: ASD04590088
#	Creating user name:	WinNT
#	Creation time:	15. 06. 2019 20:50

#	Modifying user name:	WinNT
#	Modification time:	15. 06. 2019 20:50

#	Program:	/corina/corina34_cracker 3.40 0067  02.08.2006

@<TRIPOS>MOLECULE
ASD04590088
  33   34    0    0    0
SMALL
NO_CHARGES


@<TRIPOS>ATOM
   1 N1            -0.0178     1.4648     0.0101 N.3     
   2 C2             0.0021    -0.0041     0.0020 C.3     
   3 C3            -1.4333    -0.5336     0.0129 C.3     
   4 C4            -1.4126    -2.0635     0.0045 C.3     
   5 C5            -0.6964    -2.5569    -1.2543 C.3     
   6 C6             0.7390    -2.0273    -1.2652 C.3     
   7 C7             0.7182    -0.4975    -1.2568 C.3     
   8 N8            -0.6765    -4.0257    -1.2624 N.3     
   9 C9            -0.1013    -4.5380    -2.5146 C.3     
  10 C10           -0.0447    -6.0668    -2.4561 C.3     
  11 O11           -1.3581    -6.5785    -2.2145 O.3     
  12 C12           -1.9483    -6.1006    -1.0026 C.3     
  13 C13           -2.0241    -4.5721    -1.0464 C.3     
  14 H14            0.9191     1.8392     0.0032 H       
  15 H15           -0.5563     1.8234    -0.7642 H       
  16 H16            0.5293    -0.3651     0.8851 H       
  17 H17           -1.9435    -0.1821     0.9097 H       
  18 H18           -1.9605    -0.1726    -0.8702 H       
  19 H19           -0.8854    -2.4246     0.8875 H       
  20 H20           -2.4352    -2.4408     0.0122 H       
  21 H21           -1.2236    -2.1958    -2.1374 H       
  22 H22            1.2661    -2.3884    -0.3821 H       
  23 H23            1.2492    -2.3788    -2.1620 H       
  24 H24            0.1910    -0.1364    -2.1398 H       
  25 H25            1.7408    -0.1202    -1.2645 H       
  26 H26           -0.7236    -4.2287    -3.3544 H       
  27 H27            0.9059    -4.1411    -2.6416 H       
  28 H28            0.3279    -6.4538    -3.4045 H       
  29 H29            0.6204    -6.3758    -1.6497 H       
  30 H30           -2.9524    -6.5120    -0.8998 H       
  31 H31           -1.3386    -6.4106    -0.1539 H       
  32 H32           -2.4206    -4.2002    -0.1016 H       
  33 H33           -2.6772    -4.2634    -1.8627 H       
@<TRIPOS>BOND
   1    1    2 1
   2    1   14 1
   3    1   15 1
   4    2    3 1
   5    2    7 1
   6    2   16 1
   7    3    4 1
   8    3   17 1
   9    3   18 1
  10    4    5 1
  11    4   19 1
  12    4   20 1
  13    5    6 1
  14    5    8 1
  15    5   21 1
  16    6    7 1
  17    6   22 1
  18    6   23 1
  19    7   24 1
  20    7   25 1
  21    8    9 1
  22    8   13 1
  23    9   10 1
  24    9   26 1
  25    9   27 1
  26   10   11 1
  27   10   28 1
  28   10   29 1
  29   11   12 1
  30   12   13 1
  31   12   30 1
  32   12   31 1
  33   13   32 1
  34   13   33 1

#	End of record

