#	Name: ASD05430123
#	Creating user name:	WinNT
#	Creation time:	15. 06. 2019 20:59

#	Modifying user name:	WinNT
#	Modification time:	15. 06. 2019 20:59

#	Program:	/corina/corina34_cracker 3.40 0067  02.08.2006

@<TRIPOS>MOLECULE
ASD05430123
  61   67    0    0    0
SMALL
NO_CHARGES


@<TRIPOS>ATOM
   1 F1             9.9776     4.4845    -4.8174 F       
   2 C2             0.1696     1.1761    -1.0114 C.ar    
   3 C3             0.0143    -0.0079    -0.2941 C.ar    
   4 C4             1.0486    -0.4777     0.5007 C.ar    
   5 C5             2.2353     0.2274     0.5823 C.ar    
   6 C6             2.4134     1.4101    -0.1240 C.ar    
   7 C7             1.3634     1.9156    -0.9493 C.ar    
   8 C8             4.9227    -0.0451    -0.0989 C.3     
   9 C9             4.8453     1.4644     0.0658 C.2     
  10 C10            3.6821     2.1412    -0.0216 C.2     
  11 C11            6.1495    -0.3723    -0.9589 C.3     
  12 C12            7.4657     0.0911    -0.3234 C.3     
  13 N13            7.3455     1.4968     0.0536 N.pl3   
  14 C14            6.1349     2.1382     0.3292 C.2     
  15 C15            8.8156     3.0402    -1.1419 C.ar    
  16 C16            9.3687     4.3031    -1.2444 C.ar    
  17 C17            9.7593     4.7889    -2.4778 C.ar    
  18 C18            9.5965     4.0104    -3.6111 C.ar    
  19 C19            9.0424     2.7458    -3.5073 C.ar    
  20 C20            8.6574     2.2600    -2.2721 C.ar    
  21 N21           -1.1862    -0.7231    -0.3754 N.pl3   
  22 C22           -1.3208    -2.0631    -0.6330 C.2     
  23 C23           -2.6402    -2.3321    -0.6199 C.2     
  24 N24           -3.2977    -1.1918    -0.3619 N.2     
  25 C25           -2.4379    -0.2219    -0.2082 C.2     
  26 C26           -3.2694    -3.6811    -0.8552 C.3     
  27 N27            6.3457     3.3091     0.8316 N.2     
  28 C28            8.3905     2.5114     0.2037 C.3     
  29 O29            7.7401     3.5435     0.9743 O.3     
  30 C30            9.5912     1.9419     0.9619 C.3     
  31 O31           10.5938     2.9515     1.0937 O.3     
  32 C32            6.1872    -1.8328    -1.4136 C.3     
  33 S33            7.0141    -1.3298    -2.9483 S.3     
  34 C34            5.9968     0.0744    -2.4139 C.3     
  35 C35            1.3125     3.0699    -1.7432 C.2     
  36 N36            0.2378     3.3207    -2.4106 N.2     
  37 S37           -0.8781     2.0794    -2.1101 S.3     
  38 H38            0.9272    -1.3954     1.0570 H       
  39 H39            3.0350    -0.1466     1.2044 H       
  40 H40            5.0228    -0.5168     0.8787 H       
  41 H41            4.0208    -0.4078    -0.5920 H       
  42 H42            3.6841     3.2212    -0.0164 H       
  43 H43            7.6728    -0.5077     0.5636 H       
  44 H44            8.2778    -0.0257    -1.0410 H       
  45 H45            9.4953     4.9103    -0.3603 H       
  46 H46           10.1911     5.7757    -2.5576 H       
  47 H47            8.9149     2.1377    -4.3906 H       
  48 H48            8.2251     1.2736    -2.1909 H       
  49 H49           -0.5221    -2.7676    -0.8121 H       
  50 H50           -2.6810     0.8078     0.0085 H       
  51 H51           -3.3705    -4.2056     0.0949 H       
  52 H52           -4.2540    -3.5494    -1.3041 H       
  53 H53           -2.6389    -4.2639    -1.5267 H       
  54 H54            9.2735     1.6139     1.9517 H       
  55 H55            9.9994     1.0940     0.4118 H       
  56 H56           11.3860     2.6599     1.5655 H       
  57 H57            6.8093    -2.4634    -0.7785 H       
  58 H58            5.1963    -2.2557    -1.5795 H       
  59 H59            4.9691     0.0202    -2.7732 H       
  60 H60            6.4595     1.0403    -2.6164 H       
  61 H61            2.1592     3.7383    -1.7948 H       
@<TRIPOS>BOND
   1    1   18 1
   2    2    3 ar
   3    2    7 ar
   4    2   37 1
   5    3    4 ar
   6    3   21 1
   7    4    5 ar
   8    4   38 1
   9    5    6 ar
  10    5   39 1
  11    6    7 ar
  12    6   10 1
  13    7   35 1
  14    8    9 1
  15    8   11 1
  16    8   40 1
  17    8   41 1
  18    9   10 2
  19    9   14 1
  20   10   42 1
  21   11   12 1
  22   11   32 1
  23   11   34 1
  24   12   13 1
  25   12   43 1
  26   12   44 1
  27   13   14 1
  28   13   28 1
  29   14   27 2
  30   15   16 ar
  31   15   28 1
  32   15   20 ar
  33   16   17 ar
  34   16   45 1
  35   17   18 ar
  36   17   46 1
  37   18   19 ar
  38   19   20 ar
  39   19   47 1
  40   20   48 1
  41   21   22 1
  42   21   25 1
  43   22   23 2
  44   22   49 1
  45   23   24 1
  46   23   26 1
  47   24   25 2
  48   25   50 1
  49   26   51 1
  50   26   52 1
  51   26   53 1
  52   27   29 1
  53   28   29 1
  54   28   30 1
  55   30   31 1
  56   30   54 1
  57   30   55 1
  58   31   56 1
  59   32   33 1
  60   32   57 1
  61   32   58 1
  62   33   34 1
  63   34   59 1
  64   34   60 1
  65   35   36 2
  66   35   61 1
  67   36   37 1

#	End of record

