#	Name: ASD05720006
#	Creating user name:	WinNT
#	Creation time:	15. 06. 2019 21:01

#	Modifying user name:	WinNT
#	Modification time:	15. 06. 2019 21:01

#	Program:	/corina/corina34_cracker 3.40 0067  02.08.2006

@<TRIPOS>MOLECULE
ASD05720006
  21   22    0    0    0
SMALL
NO_CHARGES


@<TRIPOS>ATOM
   1 N1            -0.0170     1.4001     0.0097 N.pl3   
   2 N2             0.0021    -0.0041     0.0020 N.2     
   3 C3             1.2665    -0.3650    -0.0120 C.2     
   4 N4             2.0278     0.7374    -0.0133 N.2     
   5 C5             1.2673     1.8001    -0.0004 C.2     
   6 C6             1.7671    -1.7620    -0.0235 C.ar    
   7 C7             3.1378    -2.0133    -0.0380 C.ar    
   8 C8             3.5983    -3.3139    -0.0488 C.ar    
   9 C9             2.7012    -4.3683    -0.0456 C.ar    
  10 C10            1.3391    -4.1240    -0.0312 C.ar    
  11 C11            0.8685    -2.8265    -0.0141 C.ar    
  12 C12            5.0802    -3.5871    -0.0645 C.3     
  13 Br13           3.3392    -6.1483    -0.0616 Br      
  14 H14           -0.8021     1.9698     0.0167 H       
  15 H15            1.6111     2.8239     0.0013 H       
  16 H16            3.8384    -1.1914    -0.0413 H       
  17 H17            0.6433    -4.9499    -0.0288 H       
  18 H18           -0.1946    -2.6369     0.0020 H       
  19 H19            5.4475    -3.6579     0.9593 H       
  20 H20            5.2711    -4.5257    -0.5847 H       
  21 H21            5.5939    -2.7753    -0.5794 H       
@<TRIPOS>BOND
   1    1    2 1
   2    1    5 1
   3    1   14 1
   4    2    3 2
   5    3    4 1
   6    3    6 1
   7    4    5 2
   8    5   15 1
   9    6    7 ar
  10    6   11 ar
  11    7    8 ar
  12    7   16 1
  13    8    9 ar
  14    8   12 1
  15    9   10 ar
  16    9   13 1
  17   10   11 ar
  18   10   17 1
  19   11   18 1
  20   12   19 1
  21   12   20 1
  22   12   21 1

#	End of record

