#	Name: ASD03331788
#	Creating user name:	WinNT
#	Creation time:	15. 06. 2019 20:39

#	Modifying user name:	WinNT
#	Modification time:	15. 06. 2019 20:39

#	Program:	/corina/corina34_cracker 3.40 0067  02.08.2006

@<TRIPOS>MOLECULE
ASD03331788
  58   61    0    0    0
SMALL
NO_CHARGES


@<TRIPOS>ATOM
   1 C1            -0.0187     1.5258     0.0104 C.3     
   2 C2             0.0021    -0.0041     0.0020 C.3     
   3 C3             0.7309    -0.5033     1.2229 C.2     
   4 C4             2.0643    -0.7472     1.3161 C.2     
   5 N5             2.3556    -1.1923     2.5910 N.pl3   
   6 H6             3.2362    -1.4354     2.9169 H       
   7 C7             1.1916    -1.2332     3.3224 C.ar    
   8 C8             0.9040    -1.5963     4.6349 C.ar    
   9 C9            -0.3922    -1.5308     5.0953 C.ar    
  10 C10           -1.4194    -1.1050     4.2613 C.ar    
  11 Cl11          -3.0447    -1.0317     4.8669 Cl      
  12 C12           -1.1614    -0.7432     2.9700 C.ar    
  13 C13            0.1500    -0.7964     2.4804 C.ar    
  14 C14            3.0417    -0.5666     0.2322 C.2     
  15 O15            2.6752    -0.1678    -0.8571 O.2     
  16 N16            4.3434    -0.8429     0.4457 N.am    
  17 C17            5.3171    -0.6630    -0.6341 C.3     
  18 C18            6.7113    -1.0442    -0.1323 C.3     
  19 H19            6.7104    -2.0866     0.1862 H       
  20 O20            7.0649    -0.2090     0.9720 O.3     
  21 C21            7.7128    -0.8591    -1.2430 C.ar    
  22 C22            8.2806     0.3830    -1.4601 C.ar    
  23 C23            9.1988     0.5560    -2.4771 C.ar    
  24 C24            9.5518    -0.5193    -3.2824 C.ar    
  25 C25            8.9795    -1.7657    -3.0617 C.ar    
  26 C26            8.0662    -1.9331    -2.0393 C.ar    
  27 N27           10.4798    -0.3477    -4.3122 N.3     
  28 C28           11.7406     0.2021    -3.7981 C.3     
  29 C29           12.6778     0.5123    -4.9675 C.3     
  30 C30           12.9438    -0.7726    -5.7567 C.3     
  31 C31           11.6107    -1.3508    -6.2396 C.3     
  32 C32           10.7045    -1.6070    -5.0333 C.3     
  33 H33            1.0039     1.9031     0.0027 H       
  34 H34           -0.5459     1.8868    -0.8726 H       
  35 H35           -0.5289     1.8773     0.9072 H       
  36 H36           -1.0205    -0.3814     0.0098 H       
  37 H37            0.5123    -0.3556    -0.8948 H       
  38 H38            1.6953    -1.9288     5.2905 H       
  39 H39           -0.6128    -1.8135     6.1140 H       
  40 H40           -1.9656    -0.4132     2.3291 H       
  41 H41            4.6356    -1.1609     1.3142 H       
  42 H42            5.0473    -1.3001    -1.4764 H       
  43 H43            5.3179     0.3794    -0.9526 H       
  44 H44            7.0857     0.7344     0.7608 H       
  45 H45            8.0055     1.2187    -0.8338 H       
  46 H46            9.6416     1.5264    -2.6463 H       
  47 H47            9.2515    -2.6037    -3.6862 H       
  48 H48            7.6242    -2.9028    -1.8643 H       
  49 H49           11.5378     1.1177    -3.2425 H       
  50 H50           12.2121    -0.5261    -3.1382 H       
  51 H51           12.2127     1.2508    -5.6206 H       
  52 H52           13.6195     0.9058    -4.5848 H       
  53 H53           13.5760    -0.5481    -6.6158 H       
  54 H54           13.4440    -1.4975    -5.1146 H       
  55 H55           11.1289    -0.6417    -6.9127 H       
  56 H56           11.7901    -2.2885    -6.7657 H       
  57 H57           11.1808    -2.3267    -4.3676 H       
  58 H58            9.7492    -2.0054    -5.3749 H       
@<TRIPOS>BOND
   1    1    2 1
   2    1   33 1
   3    1   34 1
   4    1   35 1
   5    2    3 1
   6    2   36 1
   7    2   37 1
   8    3   13 1
   9    3    4 2
  10    4    5 1
  11    4   14 1
  12    5    6 1
  13    5    7 1
  14    7   13 ar
  15    7    8 ar
  16    8    9 ar
  17    8   38 1
  18    9   10 ar
  19    9   39 1
  20   10   11 1
  21   10   12 ar
  22   12   13 ar
  23   12   40 1
  24   14   15 2
  25   14   16 am
  26   16   17 1
  27   16   41 1
  28   17   18 1
  29   17   42 1
  30   17   43 1
  31   18   19 1
  32   18   20 1
  33   18   21 1
  34   20   44 1
  35   21   26 ar
  36   21   22 ar
  37   22   23 ar
  38   22   45 1
  39   23   24 ar
  40   23   46 1
  41   24   25 ar
  42   24   27 1
  43   25   26 ar
  44   25   47 1
  45   26   48 1
  46   27   32 1
  47   27   28 1
  48   28   29 1
  49   28   49 1
  50   28   50 1
  51   29   30 1
  52   29   51 1
  53   29   52 1
  54   30   31 1
  55   30   53 1
  56   30   54 1
  57   31   32 1
  58   31   55 1
  59   31   56 1
  60   32   57 1
  61   32   58 1

#	End of record

