#	Name: ASD00170563
#	Creating user name:	WinNT
#	Creation time:	15. 06. 2019 18:32

#	Modifying user name:	WinNT
#	Modification time:	15. 06. 2019 18:32

#	Program:	/corina/corina34_cracker 3.40 0067  02.08.2006

@<TRIPOS>MOLECULE
ASD00170563
  53   56    0    0    0
SMALL
NO_CHARGES


@<TRIPOS>ATOM
   1 N1            -0.1223     1.3754     0.0959 N.3     
   2 C2             0.2553    -0.0374    -0.0427 C.3     
   3 C3            -0.9350    -0.9082     0.2675 C.2     
   4 C4            -1.6464    -1.5278    -0.6613 C.2     
   5 S5            -2.9524    -2.4500     0.0612 S.3     
   6 C6            -2.5143    -1.9793     1.6397 C.2     
   7 C7            -1.4121    -1.1566     1.6117 C.2     
   8 C8            -0.7953    -0.5865     2.8092 C.2     
   9 O9            -1.2187     0.4561     3.2746 O.2     
  10 C10            0.3424    -1.2762     3.4547 C.ar    
  11 C11            0.8650    -0.7928     4.6556 C.ar    
  12 C12            1.9257    -1.4405     5.2531 C.ar    
  13 C13            2.4728    -2.5683     4.6639 C.ar    
  14 C14            1.9589    -3.0524     3.4722 C.ar    
  15 C15            0.8944    -2.4167     2.8686 C.ar    
  16 N16           -3.1711    -2.3736     2.7877 N.pl3   
  17 Cl17           3.8084    -3.3780     5.4217 Cl      
  18 C18            1.0125     2.1941     0.1621 C.3     
  19 C19            0.6394     3.6527     0.5096 C.3     
  20 C20            0.0590     4.3143    -0.7142 C.3     
  21 N21           -1.4168     4.2139    -0.7795 N.3     
  22 C22           -1.9419     2.8896    -0.3877 C.3     
  23 C23           -1.1015     1.7655    -0.9386 C.3     
  24 C24           -2.0213     5.2319    -0.0372 C.ar    
  25 C25           -1.6623     6.5564    -0.2516 C.ar    
  26 C26           -2.2613     7.5605     0.4835 C.ar    
  27 C27           -3.2184     7.2480     1.4328 C.ar    
  28 C28           -3.5777     5.9293     1.6488 C.ar    
  29 C29           -2.9864     4.9216     0.9123 C.ar    
  30 Cl30          -3.9694     8.5127     2.3549 Cl      
  31 H31            0.5875    -0.2263    -1.0635 H       
  32 H32            1.0641    -0.2671     0.6510 H       
  33 H33           -1.4495    -1.4726    -1.7217 H       
  34 H34            0.4396     0.0869     5.1156 H       
  35 H35            2.3308    -1.0674     6.1821 H       
  36 H36            2.3898    -3.9320     3.0172 H       
  37 H37            0.4942    -2.7953     1.9396 H       
  38 H38           -3.9835    -2.9000     2.7251 H       
  39 H39           -2.8204    -2.1243     3.6570 H       
  40 H40            1.6868     1.8072     0.9261 H       
  41 H41            1.5210     2.1766    -0.8019 H       
  42 H42           -0.0980     3.6593     1.3123 H       
  43 H43            1.5318     4.1918     0.8274 H       
  44 H44            0.3394     5.3676    -0.7102 H       
  45 H45            0.4825     3.8440    -1.6017 H       
  46 H46           -1.9565     2.8214     0.7001 H       
  47 H47           -2.9606     2.7871    -0.7618 H       
  48 H48           -0.5775     2.1019    -1.8332 H       
  49 H49           -1.7382     0.9150    -1.1821 H       
  50 H50           -0.9151     6.8009    -0.9921 H       
  51 H51           -1.9823     8.5906     0.3175 H       
  52 H52           -4.3245     5.6881     2.3908 H       
  53 H53           -3.2675     3.8925     1.0809 H       
@<TRIPOS>BOND
   1    1    2 1
   2    1   18 1
   3    1   23 1
   4    2    3 1
   5    2   31 1
   6    2   32 1
   7    3    4 2
   8    3    7 1
   9    4    5 1
  10    4   33 1
  11    5    6 1
  12    6    7 2
  13    6   16 1
  14    7    8 1
  15    8    9 2
  16    8   10 1
  17   10   11 ar
  18   10   15 ar
  19   11   12 ar
  20   11   34 1
  21   12   13 ar
  22   12   35 1
  23   13   14 ar
  24   13   17 1
  25   14   15 ar
  26   14   36 1
  27   15   37 1
  28   16   38 1
  29   16   39 1
  30   18   19 1
  31   18   40 1
  32   18   41 1
  33   19   20 1
  34   19   42 1
  35   19   43 1
  36   20   21 1
  37   20   44 1
  38   20   45 1
  39   21   22 1
  40   21   24 1
  41   22   23 1
  42   22   46 1
  43   22   47 1
  44   23   48 1
  45   23   49 1
  46   24   25 ar
  47   24   29 ar
  48   25   26 ar
  49   25   50 1
  50   26   27 ar
  51   26   51 1
  52   27   28 ar
  53   27   30 1
  54   28   29 ar
  55   28   52 1
  56   29   53 1

#	End of record

