#	Name: ASD05390012
#	Creating user name:	WinNT
#	Creation time:	15. 06. 2019 20:59

#	Modifying user name:	WinNT
#	Modification time:	15. 06. 2019 20:59

#	Program:	/corina/corina34_cracker 3.40 0067  02.08.2006

@<TRIPOS>MOLECULE
ASD05390012
  16   16    0    0    0
SMALL
NO_CHARGES


@<TRIPOS>ATOM
   1 C1            -0.0166     1.3764     0.0096 C.ar    
   2 C2            -1.2362     2.0400     0.0190 C.ar    
   3 C3            -2.3971     1.2876     0.0204 C.ar    
   4 C4             1.3227    -0.7299    -0.0135 C.3     
   5 C5             0.0021    -0.0041     0.0020 C.ar    
   6 C6            -2.3039    -0.1002     0.0124 C.ar    
   7 N7            -1.1213    -0.6961     0.0086 N.ar    
   8 N8            -3.4623    -0.8684     0.0142 N.pl3   
   9 H9             0.9080     1.9346     0.0038 H       
  10 H10           -1.2776     3.1191     0.0254 H       
  11 H11           -3.3628     1.7713     0.0280 H       
  12 H12            1.6501    -0.9104     1.0104 H       
  13 H13            1.2079    -1.6821    -0.5314 H       
  14 H14            2.0652    -0.1222    -0.5306 H       
  15 H15           -4.3308    -0.4364     0.0210 H       
  16 H16           -3.4023    -1.8366     0.0087 H       
@<TRIPOS>BOND
   1    1    5 ar
   2    1    9 1
   3    1    2 ar
   4    2    3 ar
   5    2   10 1
   6    3    6 ar
   7    3   11 1
   8    4   12 1
   9    4   13 1
  10    4   14 1
  11    4    5 1
  12    5    7 ar
  13    6    7 ar
  14    6    8 1
  15    8   15 1
  16    8   16 1

#	End of record

