#	Name: ASD03731527
#	Creating user name:	WinNT
#	Creation time:	15. 06. 2019 20:45

#	Modifying user name:	WinNT
#	Modification time:	15. 06. 2019 20:45

#	Program:	/corina/corina34_cracker 3.40 0067  02.08.2006

@<TRIPOS>MOLECULE
ASD03731527
  70   75    0    0    0
SMALL
NO_CHARGES


@<TRIPOS>ATOM
   1 C1            -0.0180     1.4742     0.0101 C.2     
   2 C2             0.0021    -0.0041     0.0020 C.ar    
   3 C3             1.2184    -0.6885    -0.0133 C.ar    
   4 C4             1.2301    -2.0680    -0.0203 C.ar    
   5 C5             0.0396    -2.7730    -0.0127 C.ar    
   6 C6            -1.1695    -2.1007     0.0024 C.ar    
   7 C7            -1.1952    -0.7214     0.0154 C.ar    
   8 O8             1.0263     2.0963     0.0035 O.2     
   9 N9            -1.1942     2.1322     0.0193 N.am    
  10 C10            0.0601    -4.2798    -0.0215 C.3     
  11 C11            0.0810    -4.7980     1.4180 C.3     
  12 C12            0.1018    -6.3278     1.4091 C.3     
  13 C13            0.1228    -6.8459     2.8485 C.3     
  14 C14            0.1435    -8.3758     2.8396 C.3     
  15 C15           -1.2141     3.5970     0.0274 C.3     
  16 C16           -2.6633     4.0874     0.0369 C.3     
  17 C17           -2.6841     5.6172     0.0453 C.3     
  18 O18           -8.8975     2.7108     2.1987 O.3     
  19 C19          -10.3146     2.7643     2.4479 C.3     
  20 O20          -10.5198     4.0886     2.9742 O.3     
  21 C21           -9.5162     4.8508     2.4482 C.ar    
  22 C22           -8.5185     4.0030     1.9724 C.ar    
  23 C23           -9.3713     6.2218     2.3342 C.ar    
  24 C24           -8.2319     6.7640     1.7474 C.ar    
  25 C25           -7.2384     5.9072     1.2833 C.ar    
  26 C26           -7.3826     4.5396     1.3900 C.ar    
  27 O27           -7.9029     8.0687     1.5241 O.3     
  28 C28           -6.1399     6.7799     0.7376 C.3     
  29 C29           -6.4843     8.1682     1.2937 C.3     
  30 N30           -4.0718     6.0867     0.0544 N.am    
  31 C31           -4.7791     6.3222     1.1775 C.2     
  32 C32           -6.0966     6.7726    -0.7617 C.ar    
  33 C33           -7.0122     7.0855    -1.7415 C.ar    
  34 C34           -6.6638     6.9761    -3.0759 C.ar    
  35 C35           -5.3943     6.5512    -3.4232 C.ar    
  36 C36           -4.4740     6.2356    -2.4455 C.ar    
  37 C37           -4.8159     6.3432    -1.0997 C.ar    
  38 O38           -4.3921     6.1907     2.3194 O.2     
  39 H39            2.1484    -0.1393    -0.0199 H       
  40 H40            2.1706    -2.5988    -0.0321 H       
  41 H41           -2.0953    -2.6569     0.0083 H       
  42 H42           -2.1396    -0.1978     0.0318 H       
  43 H43           -2.0276     1.6358     0.0206 H       
  44 H44           -0.8299    -4.6523    -0.5288 H       
  45 H45            0.9498    -4.6281    -0.5460 H       
  46 H46            0.9710    -4.4255     1.9253 H       
  47 H47           -0.8087    -4.4497     1.9425 H       
  48 H48           -0.7882    -6.7003     0.9018 H       
  49 H49            0.9916    -6.6761     0.8845 H       
  50 H50            1.0127    -6.4734     3.3558 H       
  51 H51           -0.7670    -6.4977     3.3730 H       
  52 H52            0.1585    -8.7449     3.8651 H       
  53 H53           -0.7464    -8.7483     2.3323 H       
  54 H54            1.0333    -8.7240     2.3151 H       
  55 H55           -0.7010     3.9625     0.9169 H       
  56 H56           -0.7094     3.9721    -0.8630 H       
  57 H57           -3.1764     3.7219    -0.8527 H       
  58 H58           -3.1680     3.7122     0.9273 H       
  59 H59           -2.1710     5.9826     0.9349 H       
  60 H60           -2.1795     5.9923    -0.8450 H       
  61 H61          -10.8718     2.6300     1.5208 H       
  62 H62          -10.6031     2.0116     3.1817 H       
  63 H63          -10.1476     6.8758     2.7030 H       
  64 H64           -6.6074     3.8857     1.0187 H       
  65 H65           -6.2647     8.9443     0.5606 H       
  66 H66           -5.9526     8.3542     2.2270 H       
  67 H67           -8.0031     7.4170    -1.4680 H       
  68 H68           -7.3814     7.2223    -3.8446 H       
  69 H69           -5.1224     6.4656    -4.4649 H       
  70 H70           -3.4848     5.9040    -2.7246 H       
@<TRIPOS>BOND
   1    1    2 1
   2    1    8 2
   3    1    9 am
   4    2    3 ar
   5    2    7 ar
   6    3    4 ar
   7    3   39 1
   8    4    5 ar
   9    4   40 1
  10    5    6 ar
  11    5   10 1
  12    6    7 ar
  13    6   41 1
  14    7   42 1
  15    9   15 1
  16    9   43 1
  17   10   11 1
  18   10   44 1
  19   10   45 1
  20   11   12 1
  21   11   46 1
  22   11   47 1
  23   12   13 1
  24   12   48 1
  25   12   49 1
  26   13   14 1
  27   13   50 1
  28   13   51 1
  29   14   52 1
  30   14   53 1
  31   14   54 1
  32   15   16 1
  33   15   55 1
  34   15   56 1
  35   16   17 1
  36   16   57 1
  37   16   58 1
  38   17   30 1
  39   17   59 1
  40   17   60 1
  41   18   19 1
  42   18   22 1
  43   19   20 1
  44   19   61 1
  45   19   62 1
  46   20   21 1
  47   21   22 ar
  48   21   23 ar
  49   22   26 ar
  50   23   24 ar
  51   23   63 1
  52   24   25 ar
  53   24   27 1
  54   25   26 ar
  55   25   28 1
  56   26   64 1
  57   27   29 1
  58   28   29 1
  59   28   31 1
  60   28   32 1
  61   29   65 1
  62   29   66 1
  63   30   31 am
  64   30   37 1
  65   31   38 2
  66   32   33 ar
  67   32   37 ar
  68   33   34 ar
  69   33   67 1
  70   34   35 ar
  71   34   68 1
  72   35   36 ar
  73   35   69 1
  74   36   37 ar
  75   36   70 1

#	End of record

