#	Name: ASD01001193
#	Creating user name:	WinNT
#	Creation time:	15. 06. 2019 18:55

#	Modifying user name:	WinNT
#	Modification time:	15. 06. 2019 18:55

#	Program:	/corina/corina34_cracker 3.40 0067  02.08.2006

@<TRIPOS>MOLECULE
ASD01001193
  54   56    0    0    0
SMALL
NO_CHARGES


@<TRIPOS>ATOM
   1 C1            -0.0187     1.5258     0.0104 C.3     
   2 C2             1.4167     2.0553    -0.0004 C.3     
   3 C3             1.4060     3.5821    -0.1177 C.3     
   4 N4             2.0851     1.7098     1.2625 N.pl3   
   5 C5             0.6134     4.0111    -1.3495 C.3     
   6 C6             2.8437     4.0891    -0.2016 C.3     
   7 C7             3.2581     2.3860     1.6160 C.ar    
   8 C8             1.3409     3.5471    -2.6149 C.3     
   9 C9             3.6537     3.5311     0.9422 C.ar    
  10 O10            3.4388     3.6676    -1.4313 O.3     
  11 C11            4.0321     1.8943     2.6617 C.ar    
  12 C12            2.7618     4.1193    -2.6044 C.3     
  13 C13            4.8158     4.1814     1.3188 C.ar    
  14 C14            5.1910     2.5477     3.0305 C.ar    
  15 C15            5.5820     3.6916     2.3593 C.ar    
  16 C16            6.8461     4.4055     2.7633 C.3     
  17 C17            6.5097     5.8352     3.1920 C.3     
  18 C18            7.5000     3.6636     3.9307 C.3     
  19 C19            7.8121     4.4426     1.5774 C.3     
  20 C20            0.0021    -0.0041     0.0020 C.3     
  21 C21           -1.4333    -0.5336     0.0129 C.3     
  22 C22           -1.4126    -2.0635     0.0045 C.3     
  23 O23           -2.7532    -2.5581     0.0146 O.3     
  24 H24           -0.5289     1.8773     0.9072 H       
  25 H25           -0.5459     1.8868    -0.8726 H       
  26 H26            1.9633     1.6241    -0.8391 H       
  27 H27            0.9426     4.0069     0.7728 H       
  28 H28            1.7185     1.0238     1.8421 H       
  29 H29           -0.3795     3.5627    -1.3165 H       
  30 H30            0.5208     5.0970    -1.3616 H       
  31 H31            2.8480     5.1780    -0.1521 H       
  32 H32            1.3856     2.4581    -2.6322 H       
  33 H33            0.8084     3.9070    -3.4952 H       
  34 H34            3.7261     1.0009     3.1858 H       
  35 H35            3.2987     3.7778    -3.4894 H       
  36 H36            2.7160     5.2084    -2.6022 H       
  37 H37            5.1254     5.0750     0.7972 H       
  38 H38            5.7915     2.1659     3.8429 H       
  39 H39            5.8215     5.8088     4.0368 H       
  40 H40            7.4240     6.3516     3.4842 H       
  41 H41            6.0438     6.3638     2.3603 H       
  42 H42            7.7397     2.6451     3.6254 H       
  43 H43            8.4144     4.1800     4.2230 H       
  44 H44            6.8118     3.6372     4.7756 H       
  45 H45            7.3463     4.9712     0.7457 H       
  46 H46            8.7265     4.9590     1.8697 H       
  47 H47            8.0518     3.4241     1.2721 H       
  48 H48            0.5123    -0.3556    -0.8948 H       
  49 H49            0.5293    -0.3651     0.8851 H       
  50 H50           -1.9435    -0.1821     0.9097 H       
  51 H51           -1.9605    -0.1726    -0.8702 H       
  52 H52           -0.9024    -2.4150    -0.8923 H       
  53 H53           -0.8854    -2.4246     0.8875 H       
  54 H54           -2.8165    -3.5230     0.0100 H       
@<TRIPOS>BOND
   1    1   20 1
   2    1    2 1
   3    1   24 1
   4    1   25 1
   5    2    3 1
   6    2    4 1
   7    2   26 1
   8    3    5 1
   9    3    6 1
  10    3   27 1
  11    4    7 1
  12    4   28 1
  13    5    8 1
  14    5   29 1
  15    5   30 1
  16    6    9 1
  17    6   10 1
  18    6   31 1
  19    7    9 ar
  20    7   11 ar
  21    8   12 1
  22    8   32 1
  23    8   33 1
  24    9   13 ar
  25   10   12 1
  26   11   14 ar
  27   11   34 1
  28   12   35 1
  29   12   36 1
  30   13   15 ar
  31   13   37 1
  32   14   15 ar
  33   14   38 1
  34   15   16 1
  35   16   17 1
  36   16   18 1
  37   16   19 1
  38   17   39 1
  39   17   40 1
  40   17   41 1
  41   18   42 1
  42   18   43 1
  43   18   44 1
  44   19   45 1
  45   19   46 1
  46   19   47 1
  47   20   21 1
  48   20   48 1
  49   20   49 1
  50   21   22 1
  51   21   50 1
  52   21   51 1
  53   22   23 1
  54   22   52 1
  55   22   53 1
  56   23   54 1

#	End of record

