#	Name: ASD01917962
#	Creating user name:	WinNT
#	Creation time:	15. 06. 2019 20:10

#	Modifying user name:	WinNT
#	Modification time:	15. 06. 2019 20:10

#	Program:	/corina/corina34_cracker 3.40 0067  02.08.2006

@<TRIPOS>MOLECULE
ASD01917962
  43   46    0    0    0
SMALL
NO_CHARGES


@<TRIPOS>ATOM
   1 N1             4.7269    -0.5766    -2.1712 N.ar    
   2 C2             5.2112     0.1530    -3.1562 C.ar    
   3 N3             5.1525     1.4695    -3.1416 N.ar    
   4 C4             4.5991     2.1133    -2.1271 C.ar    
   5 C5             4.0754     1.3800    -1.0671 C.ar    
   6 C6             4.1579    -0.0077    -1.1212 C.ar    
   7 O7             3.4990     2.0032    -0.0059 O.3     
   8 C8             3.5510     3.3616     0.0424 C.2     
   9 N9             2.4081     5.4385    -0.0248 N.pl3   
  10 C10            2.4050     4.0769    -0.0676 C.2     
  11 C11            4.7886     3.9986     0.2110 C.2     
  12 C12            4.8384     5.3858     0.2604 C.2     
  13 C13            3.5839     6.1299     0.1331 C.2     
  14 C14            6.1192     6.0897     0.4368 C.2     
  15 N15            6.1474     7.4364     0.4824 N.am    
  16 C16            7.3420     8.0992     0.7545 C.ar    
  17 N17            8.4664     7.4070     0.8599 N.ar    
  18 C18            7.3428     9.4799     0.9069 C.ar    
  19 C19            8.5360    10.1299     1.1773 C.ar    
  20 C20            9.6921     9.3740     1.2866 C.ar    
  21 C21            9.6217     7.9979     1.1173 C.ar    
  22 O22            7.1521     5.4559     0.5414 O.2     
  23 C23            1.4320     6.3846    -0.1081 C.2     
  24 N24            2.0094     7.5536    -0.0114 N.2     
  25 N25            3.2801     7.4125     0.1368 N.2     
  26 C26            5.8508    -0.5381    -4.3328 C.3     
  27 O27           10.7498     7.2509     1.2176 O.3     
  28 C28           10.6124     5.8405     1.0340 C.3     
  29 H29            4.5548     3.1924    -2.1216 H       
  30 H30            3.7629    -0.6118    -0.3178 H       
  31 H31            1.4676     3.5553    -0.1924 H       
  32 H32            5.6938     3.4167     0.3019 H       
  33 H33            5.3359     7.9441     0.3257 H       
  34 H34            6.4241    10.0402     0.8152 H       
  35 H35            8.5645    11.2025     1.3000 H       
  36 H36           10.6383     9.8506     1.4964 H       
  37 H37            0.3752     6.2026    -0.2361 H       
  38 H38            5.0941    -0.7403    -5.0907 H       
  39 H39            6.6247     0.1035    -4.7542 H       
  40 H40            6.2963    -1.4771    -4.0044 H       
  41 H41            9.9292     5.4413     1.7837 H       
  42 H42           10.2162     5.6405     0.0384 H       
  43 H43           11.5868     5.3636     1.1398 H       
@<TRIPOS>BOND
   1    1    2 ar
   2    1    6 ar
   3    2    3 ar
   4    2   26 1
   5    3    4 ar
   6    4    5 ar
   7    4   29 1
   8    5    6 ar
   9    5    7 1
  10    6   30 1
  11    7    8 1
  12    8   11 1
  13    8   10 2
  14    9   10 1
  15    9   23 1
  16    9   13 1
  17   10   31 1
  18   11   12 2
  19   11   32 1
  20   12   13 1
  21   12   14 1
  22   13   25 2
  23   14   15 am
  24   14   22 2
  25   15   16 1
  26   15   33 1
  27   16   18 ar
  28   16   17 ar
  29   17   21 ar
  30   18   19 ar
  31   18   34 1
  32   19   20 ar
  33   19   35 1
  34   20   21 ar
  35   20   36 1
  36   21   27 1
  37   23   24 2
  38   23   37 1
  39   24   25 1
  40   26   38 1
  41   26   39 1
  42   26   40 1
  43   27   28 1
  44   28   41 1
  45   28   42 1
  46   28   43 1

#	End of record

