#	Name: ASD01910442
#	Creating user name:	WinNT
#	Creation time:	15. 06. 2019 19:55

#	Modifying user name:	WinNT
#	Modification time:	15. 06. 2019 19:55

#	Program:	/corina/corina34_cracker 3.40 0067  02.08.2006

@<TRIPOS>MOLECULE
ASD01910442
  47   50    0    0    0
SMALL
NO_CHARGES


@<TRIPOS>ATOM
   1 C1             0.1174     1.2233     0.0160 C.ar    
   2 C2             0.1601    -0.1614    -0.0119 C.ar    
   3 C3             1.3784    -0.8204    -0.0522 C.ar    
   4 C4             2.5546    -0.0996    -0.0643 C.ar    
   5 C5             2.5163     1.2932    -0.0364 C.ar    
   6 C6             1.2889     1.9518     0.0036 C.ar    
   7 F7            -0.9894    -0.8711     0.0008 F       
   8 C8             3.7789     2.0726    -0.0488 C.2     
   9 N9             3.8907     3.4200    -0.0251 N.2     
  10 C10            5.1768     3.6667    -0.0476 C.2     
  11 O11            5.8034     2.4865    -0.0837 O.3     
  12 N12            4.9920     1.5850    -0.0791 N.2     
  13 C13            5.8279     5.0257    -0.0354 C.3     
  14 C14            6.7253     5.1512     1.1978 C.3     
  15 C15            7.3614     6.5428     1.2285 C.3     
  16 C16            8.2275     6.7317    -0.0209 C.3     
  17 N17            7.4054     6.4701    -1.2102 N.am    
  18 C18            6.6766     5.1974    -1.2992 C.3     
  19 C19            7.3213     7.3802    -2.2006 C.2     
  20 C20            7.9888     8.6872    -2.0594 C.2     
  21 O21            6.6949     7.1234    -3.2108 O.2     
  22 C22            9.3490     8.9046    -1.7452 C.2     
  23 N23            9.5545    10.1924    -1.7112 N.2     
  24 N24            8.3534    10.8507    -1.9978 N.pl3   
  25 C25            7.4031     9.9275    -2.2152 C.2     
  26 C26            5.9600    10.1960    -2.5562 C.3     
  27 C27            8.1659    12.3024    -2.0570 C.3     
  28 H28           -0.8343     1.7330     0.0429 H       
  29 H29            1.4072    -1.8998    -0.0738 H       
  30 H30            3.5038    -0.6139    -0.0951 H       
  31 H31            1.2547     3.0311     0.0250 H       
  32 H32            5.0587     5.7974    -0.0057 H       
  33 H33            6.1282     5.0050     2.0979 H       
  34 H34            7.5089     4.3947     1.1553 H       
  35 H35            6.5781     7.3006     1.2461 H       
  36 H36            7.9820     6.6397     2.1194 H       
  37 H37            8.6030     7.7544    -0.0540 H       
  38 H38            9.0643     6.0337     0.0056 H       
  39 H39            7.3869     4.3743    -1.3769 H       
  40 H40            6.0288     5.2078    -2.1758 H       
  41 H41           10.0888     8.1389    -1.5642 H       
  42 H42            5.8473    10.2547    -3.6387 H       
  43 H43            5.3389     9.3880    -2.1695 H       
  44 H44            5.6500    11.1395    -2.1069 H       
  45 H45            8.3519    12.6517    -3.0726 H       
  46 H46            7.1438    12.5488    -1.7695 H       
  47 H47            8.8626    12.7870    -1.3729 H       
@<TRIPOS>BOND
   1    1    2 ar
   2    1    6 ar
   3    1   28 1
   4    2    3 ar
   5    2    7 1
   6    3    4 ar
   7    3   29 1
   8    4    5 ar
   9    4   30 1
  10    5    6 ar
  11    5    8 1
  12    6   31 1
  13    8    9 1
  14    8   12 2
  15    9   10 2
  16   10   11 1
  17   10   13 1
  18   11   12 1
  19   13   14 1
  20   13   18 1
  21   13   32 1
  22   14   15 1
  23   14   33 1
  24   14   34 1
  25   15   16 1
  26   15   35 1
  27   15   36 1
  28   16   17 1
  29   16   37 1
  30   16   38 1
  31   17   18 1
  32   17   19 am
  33   18   39 1
  34   18   40 1
  35   19   20 1
  36   19   21 2
  37   20   22 1
  38   20   25 2
  39   22   23 2
  40   22   41 1
  41   23   24 1
  42   24   25 1
  43   24   27 1
  44   25   26 1
  45   26   42 1
  46   26   43 1
  47   26   44 1
  48   27   45 1
  49   27   46 1
  50   27   47 1

#	End of record

