#	Name: ASD01912729
#	Creating user name:	WinNT
#	Creation time:	15. 06. 2019 20:00

#	Modifying user name:	WinNT
#	Modification time:	15. 06. 2019 20:00

#	Program:	/corina/corina34_cracker 3.40 0067  02.08.2006

@<TRIPOS>MOLECULE
ASD01912729
  44   47    0    0    0
SMALL
NO_CHARGES


@<TRIPOS>ATOM
   1 C1            -0.0057     1.4099     0.0483 C.2     
   2 N2             0.0251     0.0398     0.0040 N.pl3   
   3 C3            -1.1733    -0.6584    -0.0245 C.2     
   4 C4            -2.3395    -0.0269    -0.0097 C.2     
   5 N5            -2.4248     1.3530     0.0343 N.am    
   6 C6            -1.2975     2.0982     0.0697 C.2     
   7 C7             1.3085     1.8378     0.0685 C.2     
   8 C8             2.0725     0.6723     0.0344 C.2     
   9 N9             1.2509    -0.3498    -0.0027 N.2     
  10 O10           -1.3551     3.3138     0.1089 O.2     
  11 C11           -3.6703     1.9735     0.0479 C.ar    
  12 C12            3.5777     0.5994     0.0386 C.3     
  13 O13            4.1186     1.9213     0.0834 O.3     
  14 C14            5.4729     2.0338     0.0928 C.ar    
  15 C15            6.0657     3.2873     0.1356 C.ar    
  16 C16            7.4426     3.3990     0.1451 C.ar    
  17 C17            8.2297     2.2628     0.1120 C.ar    
  18 C18            7.6414     1.0123     0.0689 C.ar    
  19 C19            6.2649     0.8951     0.0654 C.ar    
  20 C20           -4.3427     2.1844     1.2517 C.ar    
  21 C21           -5.5774     2.8051     1.2165 C.ar    
  22 C22           -5.4175     2.9692    -1.0759 C.ar    
  23 N23           -4.2341     2.3788    -1.0851 N.ar    
  24 N24           -6.0813     3.1782     0.0498 N.ar    
  25 C25           -3.7374     1.7453     2.5601 C.3     
  26 O26           -5.9641     3.3703    -2.2485 O.3     
  27 C27           -7.2438     4.0030    -2.1850 C.3     
  28 H28           -1.1563    -1.7377    -0.0598 H       
  29 H29           -3.2499    -0.6075    -0.0329 H       
  30 H30            1.6664     2.8562     0.1030 H       
  31 H31            3.9119     0.0402     0.9125 H       
  32 H32            3.9196     0.0973    -0.8665 H       
  33 H33            5.4512     4.1752     0.1612 H       
  34 H34            7.9045     4.3747     0.1781 H       
  35 H35            9.3060     2.3522     0.1195 H       
  36 H36            8.2584     0.1264     0.0424 H       
  37 H37            5.8058    -0.0819     0.0318 H       
  38 H38           -6.1252     2.9835     2.1300 H       
  39 H39           -3.0559     2.5153     2.9217 H       
  40 H40           -4.5295     1.5882     3.2922 H       
  41 H41           -3.1891     0.8148     2.4127 H       
  42 H42           -7.5657     4.2735    -3.1907 H       
  43 H43           -7.9669     3.3167    -1.7444 H       
  44 H44           -7.1749     4.9013    -1.5716 H       
@<TRIPOS>BOND
   1    1    2 1
   2    1    7 2
   3    1    6 1
   4    2    3 1
   5    2    9 1
   6    3    4 2
   7    3   28 1
   8    4    5 1
   9    4   29 1
  10    5    6 am
  11    5   11 1
  12    6   10 2
  13    7    8 1
  14    7   30 1
  15    8    9 2
  16    8   12 1
  17   11   20 ar
  18   11   23 ar
  19   12   13 1
  20   12   31 1
  21   12   32 1
  22   13   14 1
  23   14   15 ar
  24   14   19 ar
  25   15   16 ar
  26   15   33 1
  27   16   17 ar
  28   16   34 1
  29   17   18 ar
  30   17   35 1
  31   18   19 ar
  32   18   36 1
  33   19   37 1
  34   20   21 ar
  35   20   25 1
  36   21   24 ar
  37   21   38 1
  38   22   23 ar
  39   22   26 1
  40   22   24 ar
  41   25   39 1
  42   25   40 1
  43   25   41 1
  44   26   27 1
  45   27   42 1
  46   27   43 1
  47   27   44 1

#	End of record

