#	Name: ASD01708012
#	Creating user name:	WinNT
#	Creation time:	15. 06. 2019 19:22

#	Modifying user name:	WinNT
#	Modification time:	15. 06. 2019 19:22

#	Program:	/corina/corina34_cracker 3.40 0067  02.08.2006

@<TRIPOS>MOLECULE
ASD01708012
  76   79    0    0    0
SMALL
NO_CHARGES


@<TRIPOS>ATOM
   1 C1             0.0295     1.0151     0.4395 C.ar    
   2 C2             0.0673    -0.3349     0.2857 C.ar    
   3 C3             1.3019    -1.0269     0.3145 C.ar    
   4 C4             2.4782    -0.2910     0.5044 C.ar    
   5 C5             2.4134     1.0977     0.6608 C.ar    
   6 C6             1.1997     1.7407     0.6276 C.ar    
   7 C7             1.5438    -2.4031     0.1758 C.2     
   8 C8             2.8263    -2.7737     0.2463 C.2     
   9 S9             3.8611    -1.3794     0.5002 S.3     
  10 C10            3.3040    -4.1589     0.1278 C.2     
  11 N11            4.6200    -4.4073    -0.0232 N.am    
  12 O12            2.5114    -5.0810     0.1660 O.2     
  13 C13            5.1505    -5.7800     0.0219 C.3     
  14 C14            5.5808    -3.3216    -0.2451 C.3     
  15 C15            6.5402    -3.7082    -1.3435 C.ar    
  16 C16            6.6118    -4.9918    -1.8401 C.ar    
  17 C17            5.7311    -6.1038    -1.3537 C.3     
  18 C18            7.3695    -2.7163    -1.8533 C.ar    
  19 C19            8.2756    -2.9998    -2.8519 C.ar    
  20 C20            8.3609    -4.3007    -3.3559 C.ar    
  21 C21            7.5242    -5.2909    -2.8433 C.ar    
  22 Cl22           7.6239    -6.9095    -3.4631 Cl      
  23 Cl23           9.3037    -1.7500    -3.4800 Cl      
  24 C24            9.3296    -4.6236    -4.4229 C.2     
  25 N25            8.9695    -4.5109    -5.7168 N.am    
  26 O26           10.4519    -4.9911    -4.1342 O.2     
  27 C27           10.7868    -3.6239    -7.0583 C.2     
  28 O28           11.7434    -3.6851    -7.9980 O.3     
  29 O29           10.6124    -2.6010    -6.4395 O.2     
  30 C30            9.9304    -4.8312    -6.7752 C.3     
  31 C31            9.1761    -5.2305    -8.0450 C.3     
  32 N32            8.2547    -6.3281    -7.7409 N.pl3   
  33 C33            7.4240    -6.8114    -8.7118 C.2     
  34 N34            7.5333    -6.3538    -9.9942 N.pl3   
  35 N35            6.5147    -7.7217    -8.4103 N.2     
  36 C36            8.5731    -5.4418   -10.4928 C.3     
  37 C37            6.6319    -6.6976   -11.1089 C.3     
  38 C38            6.7682    -5.5204   -12.1066 C.3     
  39 C39            8.2797    -5.1849   -11.9859 C.3     
  40 O40            5.9611    -4.4119   -11.7044 O.3     
  41 C41            6.4734    -8.2512    -7.1637 C.1     
  42 N42            6.4387    -8.6950    -6.1185 N.1     
  43 H43           -0.9196     1.5298     0.4107 H       
  44 H44           -0.8515    -0.8837     0.1407 H       
  45 H45            3.3201     1.6660     0.8073 H       
  46 H46            1.1548     2.8129     0.7488 H       
  47 H47            0.7463    -3.1152     0.0226 H       
  48 H48            5.9328    -5.8485     0.7778 H       
  49 H49            4.3473    -6.4784     0.2569 H       
  50 H50            5.0456    -2.4168    -0.5330 H       
  51 H51            6.1372    -3.1363     0.6737 H       
  52 H52            6.3171    -7.0201    -1.2825 H       
  53 H53            4.9178    -6.2536    -2.0637 H       
  54 H54            7.3028    -1.7117    -1.4625 H       
  55 H55            8.0740    -4.2177    -5.9472 H       
  56 H56           12.2671    -2.8854    -8.1440 H       
  57 H57           10.5633    -5.6582    -6.4533 H       
  58 H58            8.6121    -4.3751    -8.4168 H       
  59 H59            9.8884    -5.5539    -8.8042 H       
  60 H60            8.2344    -6.7117    -6.8502 H       
  61 H61            8.5378    -4.5023    -9.9411 H       
  62 H62            9.5547    -5.9026   -10.3818 H       
  63 H63            6.9464    -7.6302   -11.5772 H       
  64 H64            5.6041    -6.7776   -10.7548 H       
  65 H65            6.5188    -5.8361   -13.1197 H       
  66 H66            8.4648    -4.1417   -12.2419 H       
  67 H67            8.8734    -5.8486   -12.6146 H       
  68 H68            6.0139    -3.6509   -12.2986 H       
  69 C69           18.2690     9.7200     6.7125 C.3     
  70 C70           18.2897     8.1902     6.7041 C.3     
  71 H71           19.2916    10.0973     6.7047 H       
  72 H72           17.7418    10.0811     5.8294 H       
  73 H73           17.7588    10.0716     7.6093 H       
  74 H74           18.8169     7.8291     7.5871 H       
  75 H75           17.2671     7.8129     6.7118 H       
  76 H76           18.7999     7.8387     5.8073 H       
@<TRIPOS>BOND
   1    1    2 ar
   2    1    6 ar
   3    1   43 1
   4    2    3 ar
   5    2   44 1
   6    3    4 ar
   7    3    7 1
   8    4    5 ar
   9    4    9 1
  10    5    6 ar
  11    5   45 1
  12    6   46 1
  13    7    8 2
  14    7   47 1
  15    8    9 1
  16    8   10 1
  17   10   11 am
  18   10   12 2
  19   11   13 1
  20   11   14 1
  21   13   17 1
  22   13   48 1
  23   13   49 1
  24   14   15 1
  25   14   50 1
  26   14   51 1
  27   15   16 ar
  28   15   18 ar
  29   16   17 1
  30   16   21 ar
  31   17   52 1
  32   17   53 1
  33   18   19 ar
  34   18   54 1
  35   19   20 ar
  36   19   23 1
  37   20   21 ar
  38   20   24 1
  39   21   22 1
  40   24   25 am
  41   24   26 2
  42   25   30 1
  43   25   55 1
  44   27   28 1
  45   27   29 2
  46   27   30 1
  47   28   56 1
  48   30   31 1
  49   30   57 1
  50   31   32 1
  51   31   58 1
  52   31   59 1
  53   32   33 1
  54   32   60 1
  55   33   34 1
  56   33   35 2
  57   34   36 1
  58   34   37 1
  59   35   41 1
  60   36   39 1
  61   36   61 1
  62   36   62 1
  63   37   38 1
  64   37   63 1
  65   37   64 1
  66   38   39 1
  67   38   40 1
  68   38   65 1
  69   39   66 1
  70   39   67 1
  71   40   68 1
  72   41   42 3
  73   69   70 1
  74   69   71 1
  75   69   72 1
  76   69   73 1
  77   70   74 1
  78   70   75 1
  79   70   76 1

#	End of record

