#	Name: ASD04590382
#	Creating user name:	WinNT
#	Creation time:	15. 06. 2019 20:50

#	Modifying user name:	WinNT
#	Modification time:	15. 06. 2019 20:50

#	Program:	/corina/corina34_cracker 3.40 0067  02.08.2006

@<TRIPOS>MOLECULE
ASD04590382
  49   53    0    0    0
SMALL
NO_CHARGES


@<TRIPOS>ATOM
   1 C1            -0.0167     1.3834     0.0096 C.ar    
   2 C2             0.0021    -0.0041     0.0020 C.ar    
   3 C3             2.3948     0.0191    -0.0202 C.ar    
   4 C4             2.3756     1.4249    -0.0129 C.ar    
   5 C5             1.1624     2.0987     0.0022 C.ar    
   6 N6             3.6952    -0.3637    -0.0352 N.2     
   7 C7             4.4665     0.6967    -0.0376 C.2     
   8 N8             3.6970     1.8290    -0.0242 N.pl3   
   9 C9             5.9437     0.6731    -0.0526 C.2     
  10 C10            6.7565    -0.4839    -0.0671 C.2     
  11 C11            8.0503    -0.0800    -0.0784 C.2     
  12 N12            8.0625     1.2789    -0.0714 N.pl3   
  13 N13            6.7358     1.7273    -0.0606 N.2     
  14 N14            6.3042    -1.8135    -0.0693 N.am    
  15 C15            7.1921    -2.8274    -0.0838 C.2     
  16 O16            8.3852    -2.5908    -0.0950 O.2     
  17 C17            6.7175    -4.2225    -0.0862 C.2     
  18 C18            7.4809    -5.3519    -0.1000 C.2     
  19 C19            1.1863    -0.6848    -0.0125 C.ar    
  20 O20            6.6674    -6.4162    -0.0967 O.3     
  21 C21            5.3800    -6.0352    -0.0811 C.2     
  22 C22            5.3217    -4.6861    -0.0677 C.2     
  23 C23            8.9871    -5.3957    -0.1168 C.3     
  24 N24            4.2826    -6.8925    -0.0737 N.3     
  25 C25            4.7122    -8.2984    -0.0847 C.3     
  26 C26            3.4795    -9.2037    -0.0158 C.3     
  27 O27            2.6066    -8.8958    -1.1060 O.3     
  28 C28            2.1681    -7.5346    -1.1256 C.3     
  29 C29            3.3875    -6.6124    -1.2058 C.3     
  30 H30           -0.9614     1.9069     0.0169 H       
  31 H31           -0.9290    -0.5513     0.0080 H       
  32 H32            1.1417     3.1785     0.0079 H       
  33 H33            4.0192     2.7439    -0.0228 H       
  34 H34            8.9174    -0.7238    -0.0904 H       
  35 H35            8.8531     1.8409    -0.0766 H       
  36 H36            5.3527    -2.0022    -0.0605 H       
  37 H37            1.1893    -1.7648    -0.0176 H       
  38 H38            4.4325    -4.0732    -0.0533 H       
  39 H39            9.3616    -5.4112     0.9068 H       
  40 H40            9.3187    -6.2934    -0.6386 H       
  41 H41            9.3706    -4.5142    -0.6306 H       
  42 H42            5.2635    -8.5033    -1.0025 H       
  43 H43            5.3530    -8.4899     0.7760 H       
  44 H44            3.7897   -10.2466    -0.0813 H       
  45 H45            2.9578    -9.0370     0.9266 H       
  46 H46            1.5299    -7.3704    -1.9938 H       
  47 H47            1.6082    -7.3194    -0.2155 H       
  48 H48            3.0614    -5.5732    -1.1635 H       
  49 H49            3.9176    -6.7904    -2.1415 H       
@<TRIPOS>BOND
   1    1    2 ar
   2    1    5 ar
   3    1   30 1
   4    2   19 ar
   5    2   31 1
   6    3    4 ar
   7    3    6 1
   8    3   19 ar
   9    4    5 ar
  10    4    8 1
  11    5   32 1
  12    6    7 2
  13    7    8 1
  14    7    9 1
  15    8   33 1
  16    9   10 1
  17    9   13 2
  18   10   11 2
  19   10   14 1
  20   11   12 1
  21   11   34 1
  22   12   13 1
  23   12   35 1
  24   14   15 am
  25   14   36 1
  26   15   16 2
  27   15   17 1
  28   17   18 2
  29   17   22 1
  30   18   20 1
  31   18   23 1
  32   19   37 1
  33   20   21 1
  34   21   22 2
  35   21   24 1
  36   22   38 1
  37   23   39 1
  38   23   40 1
  39   23   41 1
  40   24   25 1
  41   24   29 1
  42   25   26 1
  43   25   42 1
  44   25   43 1
  45   26   27 1
  46   26   44 1
  47   26   45 1
  48   27   28 1
  49   28   29 1
  50   28   46 1
  51   28   47 1
  52   29   48 1
  53   29   49 1

#	End of record

