#	Name: ASD01180168
#	Creating user name:	WinNT
#	Creation time:	15. 06. 2019 19:06

#	Modifying user name:	WinNT
#	Modification time:	15. 06. 2019 19:06

#	Program:	/corina/corina34_cracker 3.40 0067  02.08.2006

@<TRIPOS>MOLECULE
ASD01180168
  41   41    0    0    0
SMALL
NO_CHARGES


@<TRIPOS>ATOM
   1 C1            -0.0180     1.4754     0.0102 C.2     
   2 C2             0.0021    -0.0041     0.0020 C.ar    
   3 C3             1.2207    -0.6851    -0.0133 C.ar    
   4 C4             1.2405    -2.0626    -0.0209 C.ar    
   5 C5             0.0397    -2.7785    -0.0132 C.ar    
   6 C6            -1.1801    -2.0956     0.0021 C.ar    
   7 C7            -1.1976    -0.7181     0.0154 C.ar    
   8 O8             1.0253     2.0968     0.0035 O.2     
   9 O9            -1.1934     2.1329     0.0193 O.3     
  10 C10            0.0597    -4.2525    -0.0218 C.2     
  11 C11           -1.2350    -5.0236    -0.0136 C.3     
  12 C12           -0.9351    -6.5239    -0.0251 C.3     
  13 C13           -0.2246    -6.9119     1.2732 C.3     
  14 O14            1.1176    -4.8442    -0.0355 O.2     
  15 C15           -2.2454    -7.3051    -0.1425 C.3     
  16 C16           -1.1371     3.5838     0.0269 C.3     
  17 C17           -0.4026     4.0722    -1.2232 C.3     
  18 C18           -2.5587     4.1493     0.0367 C.3     
  19 C19           -0.3907     4.0587     1.2752 C.3     
  20 H20            2.1482    -0.1319    -0.0195 H       
  21 H21            2.1833    -2.5893    -0.0331 H       
  22 H22           -2.1083    -2.6477     0.0080 H       
  23 H23           -2.1397    -0.1903     0.0317 H       
  24 H24           -1.8014    -4.7732     0.8834 H       
  25 H25           -1.8187    -4.7630    -0.8965 H       
  26 H26           -0.2941    -6.7598    -0.8745 H       
  27 H27           -0.8656    -6.6760     2.1227 H       
  28 H28           -0.0109    -7.9807     1.2650 H       
  29 H29            0.7089    -6.3554     1.3569 H       
  30 H30           -2.7516    -7.0287    -1.0674 H       
  31 H31           -2.0317    -8.3739    -0.1507 H       
  32 H32           -2.8864    -7.0692     0.7070 H       
  33 H33           -0.9343     3.7339    -2.1125 H       
  34 H34           -0.3603     5.1614    -1.2175 H       
  35 H35            0.6102     3.6694    -1.2302 H       
  36 H36           -3.0820     3.8013     0.9273 H       
  37 H37           -2.5165     5.2385     0.0425 H       
  38 H38           -3.0905     3.8110    -0.8526 H       
  39 H39            0.6221     3.6558     1.2682 H       
  40 H40           -0.3484     5.1478     1.2810 H       
  41 H41           -0.9140     3.7107     2.1658 H       
@<TRIPOS>BOND
   1    1    2 1
   2    1    8 2
   3    1    9 1
   4    2    3 ar
   5    2    7 ar
   6    3    4 ar
   7    3   20 1
   8    4    5 ar
   9    4   21 1
  10    5    6 ar
  11    5   10 1
  12    6    7 ar
  13    6   22 1
  14    7   23 1
  15    9   16 1
  16   10   11 1
  17   10   14 2
  18   11   12 1
  19   11   24 1
  20   11   25 1
  21   12   13 1
  22   12   15 1
  23   12   26 1
  24   13   27 1
  25   13   28 1
  26   13   29 1
  27   15   30 1
  28   15   31 1
  29   15   32 1
  30   16   17 1
  31   16   19 1
  32   16   18 1
  33   17   33 1
  34   17   34 1
  35   17   35 1
  36   18   36 1
  37   18   37 1
  38   18   38 1
  39   19   39 1
  40   19   40 1
  41   19   41 1

#	End of record

