#	Name: ASD01420286
#	Creating user name:	WinNT
#	Creation time:	15. 06. 2019 19:20

#	Modifying user name:	WinNT
#	Modification time:	15. 06. 2019 19:20

#	Program:	/corina/corina34_cracker 3.40 0067  02.08.2006

@<TRIPOS>MOLECULE
ASD01420286
 106  110    0    0    0
SMALL
NO_CHARGES


@<TRIPOS>ATOM
   1 C1            -0.0144     1.2120     0.0087 C.2     
   2 O2             0.1180     0.0696     0.4042 O.2     
   3 C3             1.1533     2.1072    -0.0614 C.ar    
   4 C4             2.0776     2.1434     0.9939 C.ar    
   5 C5             3.1722     2.9870     0.9197 C.ar    
   6 C6             3.3533     3.7932    -0.1947 C.ar    
   7 C7             2.4376     3.7584    -1.2418 C.ar    
   8 C8             1.3483     2.9200    -1.1821 C.ar    
   9 C9             2.6427     4.6383    -2.4479 C.3     
  10 C10            2.7702     3.7670    -3.6991 C.3     
  11 C11            1.4464     5.5797    -2.6018 C.3     
  12 O12            4.4276     4.6195    -0.2636 O.3     
  13 O13            1.8986     1.3546     2.0830 O.3     
  14 C14           -1.5726     3.0270    -0.7649 C.3     
  15 N15           -1.2286     1.6572    -0.3707 N.am    
  16 C16           -2.4581     0.8644    -0.4689 C.3     
  17 C17           -3.5604     1.7830    -0.9323 C.ar    
  18 C18           -4.9001     1.5439    -1.1824 C.ar    
  19 C19           -5.7222     2.5762    -1.6072 C.ar    
  20 C20           -5.1984     3.8493    -1.7809 C.ar    
  21 C21           -3.8613     4.0834    -1.5302 C.ar    
  22 C22           -3.0413     3.0511    -1.1058 C.ar    
  23 O23           -7.0380     2.3417    -1.8534 O.3     
  24 C24           -7.8247     3.4526    -2.2883 C.3     
  25 C25           -9.2683     2.9983    -2.5131 C.3     
  26 C26          -10.1106     4.1877    -2.9787 C.3     
  27 N27          -11.4967     3.7515    -3.1946 N.3     
  28 H28            3.8857     3.0181     1.7300 H       
  29 H29            0.6422     2.8927    -1.9989 H       
  30 H30            3.5524     5.2248    -2.3194 H       
  31 H31            1.8605     3.1804    -3.8276 H       
  32 H32            2.9185     4.4034    -4.5715 H       
  33 H33            3.6224     3.0963    -3.5895 H       
  34 H34            0.5367     4.9931    -2.7303 H       
  35 H35            1.3556     6.2004    -1.7104 H       
  36 H36            1.5947     6.2161    -3.4742 H       
  37 H37            5.2071     4.2180    -0.6713 H       
  38 H38            2.3144     0.4846     2.0111 H       
  39 H39           -1.3739     3.7100     0.0610 H       
  40 H40           -0.9863     3.3190    -1.6361 H       
  41 H41           -2.3214     0.0584    -1.1899 H       
  42 H42           -2.7090     0.4494     0.5073 H       
  43 H43           -5.3056     0.5522    -1.0469 H       
  44 H44           -5.8358     4.6558    -2.1120 H       
  45 H45           -3.4534     5.0743    -1.6653 H       
  46 H46           -7.8037     4.2327    -1.5273 H       
  47 H47           -7.4174     3.8434    -3.2207 H       
  48 H48           -9.2894     2.2181    -3.2741 H       
  49 H49           -9.6756     2.6074    -1.5807 H       
  50 H50          -10.0896     4.9678    -2.2177 H       
  51 H51           -9.7033     4.5785    -3.9111 H       
  52 H52          -11.8757     3.3260    -2.3619 H       
  53 H53          -12.0737     4.5197    -3.5028 H       
  54 C54           22.2664    12.3697    11.6632 C.2     
  55 O55           22.3988    11.2273    12.0587 O.2     
  56 C56           23.4341    13.2649    11.5931 C.ar    
  57 C57           24.3584    13.3011    12.6484 C.ar    
  58 C58           25.4530    14.1447    12.5743 C.ar    
  59 C59           25.6340    14.9509    11.4598 C.ar    
  60 C60           24.7184    14.9161    10.4127 C.ar    
  61 C61           23.6291    14.0777    10.4724 C.ar    
  62 C62           24.9235    15.7960     9.2066 C.3     
  63 C63           25.0510    14.9247     7.9554 C.3     
  64 C64           23.7272    16.7374     9.0527 C.3     
  65 O65           26.7084    15.7772    11.3909 O.3     
  66 O66           24.1794    12.5123    13.7375 O.3     
  67 C67           20.7082    14.1847    10.8896 C.3     
  68 N68           21.0522    12.8149    11.2838 N.am    
  69 C69           19.8226    12.0221    11.1856 C.3     
  70 C70           18.7204    12.9407    10.7222 C.ar    
  71 C71           17.3807    12.7016    10.4721 C.ar    
  72 C72           16.5586    13.7339    10.0473 C.ar    
  73 C73           17.0824    15.0070     9.8736 C.ar    
  74 C74           18.4195    15.2411    10.1243 C.ar    
  75 C75           19.2395    14.2088    10.5487 C.ar    
  76 O76           15.2428    13.4994     9.8011 O.3     
  77 C77           14.4561    14.6103     9.3662 C.3     
  78 C78           13.0125    14.1560     9.1414 C.3     
  79 C79           12.1702    15.3454     8.6758 C.3     
  80 N80           10.7841    14.9092     8.4599 N.3     
  81 H81           26.1665    14.1758    13.3845 H       
  82 H82           22.9230    14.0504     9.6556 H       
  83 H83           25.8332    16.3825     9.3351 H       
  84 H84           24.1413    14.3381     7.8269 H       
  85 H85           25.1993    15.5611     7.0830 H       
  86 H86           25.9032    14.2540     8.0650 H       
  87 H87           22.8175    16.1508     8.9242 H       
  88 H88           23.6363    17.3581     9.9441 H       
  89 H89           23.8755    17.3738     8.1803 H       
  90 H90           27.4879    15.3757    10.9832 H       
  91 H91           24.5952    11.6423    13.6656 H       
  92 H92           20.9069    14.8677    11.7156 H       
  93 H93           21.2945    14.4767    10.0184 H       
  94 H94           19.9594    11.2161    10.4647 H       
  95 H95           19.5718    11.6071    12.1618 H       
  96 H96           16.9752    11.7099    10.6076 H       
  97 H97           16.4450    15.8135     9.5425 H       
  98 H98           18.8273    16.2320     9.9892 H       
  99 H99           14.4771    15.3904    10.1272 H       
 100 H100          14.8634    15.0011     8.4338 H       
 101 H101          12.9914    13.3758     8.3804 H       
 102 H102          12.6052    13.7651    10.0738 H       
 103 H103          12.1912    16.1255     9.4368 H       
 104 H104          12.5775    15.7362     7.7434 H       
 105 H105          10.4051    14.4837     9.2926 H       
 106 H106          10.2071    15.6774     8.1517 H       
@<TRIPOS>BOND
   1    1    2 2
   2    1    3 1
   3    1   15 am
   4    3    4 ar
   5    3    8 ar
   6    4    5 ar
   7    4   13 1
   8    5    6 ar
   9    5   28 1
  10    6    7 ar
  11    6   12 1
  12    7    8 ar
  13    7    9 1
  14    8   29 1
  15    9   10 1
  16    9   11 1
  17    9   30 1
  18   10   31 1
  19   10   32 1
  20   10   33 1
  21   11   34 1
  22   11   35 1
  23   11   36 1
  24   12   37 1
  25   13   38 1
  26   14   15 1
  27   14   22 1
  28   14   39 1
  29   14   40 1
  30   15   16 1
  31   16   17 1
  32   16   41 1
  33   16   42 1
  34   17   18 ar
  35   17   22 ar
  36   18   19 ar
  37   18   43 1
  38   19   20 ar
  39   19   23 1
  40   20   21 ar
  41   20   44 1
  42   21   22 ar
  43   21   45 1
  44   23   24 1
  45   24   25 1
  46   24   46 1
  47   24   47 1
  48   25   26 1
  49   25   48 1
  50   25   49 1
  51   26   27 1
  52   26   50 1
  53   26   51 1
  54   27   52 1
  55   27   53 1
  56   54   55 2
  57   54   56 1
  58   54   68 am
  59   56   57 ar
  60   56   61 ar
  61   57   58 ar
  62   57   66 1
  63   58   59 ar
  64   58   81 1
  65   59   60 ar
  66   59   65 1
  67   60   61 ar
  68   60   62 1
  69   61   82 1
  70   62   63 1
  71   62   64 1
  72   62   83 1
  73   63   84 1
  74   63   85 1
  75   63   86 1
  76   64   87 1
  77   64   88 1
  78   64   89 1
  79   65   90 1
  80   66   91 1
  81   67   68 1
  82   67   75 1
  83   67   92 1
  84   67   93 1
  85   68   69 1
  86   69   70 1
  87   69   94 1
  88   69   95 1
  89   70   71 ar
  90   70   75 ar
  91   71   72 ar
  92   71   96 1
  93   72   73 ar
  94   72   76 1
  95   73   74 ar
  96   73   97 1
  97   74   75 ar
  98   74   98 1
  99   76   77 1
 100   77   78 1
 101   77   99 1
 102   77  100 1
 103   78   79 1
 104   78  101 1
 105   78  102 1
 106   79   80 1
 107   79  103 1
 108   79  104 1
 109   80  105 1
 110   80  106 1

#	End of record

