#	Name: ASD01814519
#	Creating user name:	WinNT
#	Creation time:	15. 06. 2019 19:32

#	Modifying user name:	WinNT
#	Modification time:	15. 06. 2019 19:32

#	Program:	/corina/corina34_cracker 3.40 0067  02.08.2006

@<TRIPOS>MOLECULE
ASD01814519
  58   60    0    0    0
SMALL
NO_CHARGES


@<TRIPOS>ATOM
   1 C1            -0.0655     1.2797     0.0716 C.ar    
   2 C2             0.0639    -0.0974     0.0497 C.ar    
   3 C3             1.3169    -0.6797    -0.0269 C.ar    
   4 C4             2.4459     0.1109    -0.0819 C.ar    
   5 C5             2.3224     1.5012    -0.0607 C.ar    
   6 C6             1.0557     2.0820     0.0166 C.ar    
   7 C7             3.5282     2.3547    -0.1188 C.2     
   8 O8             3.4148     3.5614    -0.2117 O.2     
   9 N9             4.7531     1.7948    -0.0689 N.am    
  10 C10            5.9480     2.6405    -0.1265 C.3     
  11 C11            7.1176     1.9191     0.5470 C.3     
  12 N12            8.3207     2.7575     0.4708 N.3     
  13 C13            8.7087     3.0042    -0.9238 C.3     
  14 C14            7.5866     3.7580    -1.6412 C.3     
  15 C15            6.3034     2.9243    -1.5886 C.3     
  16 C16            9.4284     2.1587     1.2274 C.3     
  17 C17           10.6951     2.9929     1.0230 C.3     
  18 C18           11.8560     2.3463     1.7853 C.3     
  19 N19           11.4638     2.1793     3.1913 N.am    
  20 C20           10.2137     1.4704     3.4966 C.3     
  21 C21            9.0712     2.1268     2.7152 C.3     
  22 C22            0.9129     3.5820     0.0396 C.3     
  23 C23           12.2364     2.6668     4.1823 C.2     
  24 O24           13.2683     3.2509     3.9167 O.2     
  25 O25           11.8648     2.5066     5.4664 O.3     
  26 C26           12.1622     2.7793     7.8679 C.3     
  27 C27           12.7454     3.0573     6.4811 C.3     
  28 H28           -1.0465     1.7279     0.1273 H       
  29 H29           -0.8169    -0.7209     0.0929 H       
  30 H30            1.4111    -1.7554    -0.0433 H       
  31 H31            3.4233    -0.3448    -0.1409 H       
  32 H32            4.8436     0.8319     0.0053 H       
  33 H33            5.7539     3.5803     0.3904 H       
  34 H34            6.8734     1.7283     1.5920 H       
  35 H35            7.3017     0.9726     0.0385 H       
  36 H36            9.6202     3.6015    -0.9470 H       
  37 H37            8.8854     2.0527    -1.4253 H       
  38 H38            7.4188     4.7158    -1.1485 H       
  39 H39            7.8683     3.9272    -2.6804 H       
  40 H40            6.4590     1.9826    -2.1150 H       
  41 H41            5.4906     3.4765    -2.0605 H       
  42 H42            9.6020     1.1423     0.8739 H       
  43 H43           10.9358     3.0346    -0.0393 H       
  44 H44           10.5304     4.0026     1.3991 H       
  45 H45           12.0812     1.3724     1.3506 H       
  46 H46           12.7352     2.9878     1.7248 H       
  47 H47           10.3049     0.4251     3.2015 H       
  48 H48           10.0092     1.5340     4.5654 H       
  49 H49            8.9218     3.1447     3.0754 H       
  50 H50            8.1560     1.5521     2.8573 H       
  51 H51            0.9414     3.9654    -0.9804 H       
  52 H52           -0.0374     3.8495     0.5018 H       
  53 H53            1.7312     4.0162     0.6140 H       
  54 H54           11.1794     3.2439     7.9486 H       
  55 H55           12.0683     1.7032     8.0136 H       
  56 H56           12.8232     3.1927     8.6296 H       
  57 H57           13.7281     2.5927     6.4004 H       
  58 H58           12.8393     4.1335     6.3354 H       
@<TRIPOS>BOND
   1    1    2 ar
   2    1    6 ar
   3    1   28 1
   4    2    3 ar
   5    2   29 1
   6    3    4 ar
   7    3   30 1
   8    4    5 ar
   9    4   31 1
  10    5    6 ar
  11    5    7 1
  12    6   22 1
  13    7    8 2
  14    7    9 am
  15    9   10 1
  16    9   32 1
  17   10   11 1
  18   10   15 1
  19   10   33 1
  20   11   12 1
  21   11   34 1
  22   11   35 1
  23   12   13 1
  24   12   16 1
  25   13   14 1
  26   13   36 1
  27   13   37 1
  28   14   15 1
  29   14   38 1
  30   14   39 1
  31   15   40 1
  32   15   41 1
  33   16   17 1
  34   16   21 1
  35   16   42 1
  36   17   18 1
  37   17   43 1
  38   17   44 1
  39   18   19 1
  40   18   45 1
  41   18   46 1
  42   19   20 1
  43   19   23 am
  44   20   21 1
  45   20   47 1
  46   20   48 1
  47   21   49 1
  48   21   50 1
  49   22   51 1
  50   22   52 1
  51   22   53 1
  52   23   24 2
  53   23   25 1
  54   25   27 1
  55   26   27 1
  56   26   54 1
  57   26   55 1
  58   26   56 1
  59   27   57 1
  60   27   58 1

#	End of record

