#	Name: ASD03092168
#	Creating user name:	WinNT
#	Creation time:	15. 06. 2019 20:32

#	Modifying user name:	WinNT
#	Modification time:	15. 06. 2019 20:32

#	Program:	/corina/corina34_cracker 3.40 0067  02.08.2006

@<TRIPOS>MOLECULE
ASD03092168
  50   53    0    0    0
SMALL
NO_CHARGES


@<TRIPOS>ATOM
   1 N1             0.0492     1.1136    -0.2579 N.pl3   
   2 C2            -0.1093    -0.1677     0.1794 C.2     
   3 C3            -1.4482    -0.3812     0.3441 C.2     
   4 C4            -2.1159     0.8006    -0.0024 C.2     
   5 N5            -1.2215     1.6944    -0.3559 N.2     
   6 N6            -3.5018     0.9971     0.0286 N.pl3   
   7 C7            -4.0341     2.2643    -0.2278 C.ar    
   8 C8            -5.3229     2.3882    -0.7305 C.ar    
   9 C9            -5.8482     3.6426    -0.9838 C.ar    
  10 C10           -5.0889     4.7756    -0.7365 C.ar    
  11 C11           -3.2768     3.4006     0.0253 C.ar    
  12 C12            0.9708    -1.1474     0.4295 C.ar    
  13 C13            1.3231     1.7688    -0.5650 C.3     
  14 C14            0.7513    -2.2272     1.2846 C.ar    
  15 C15            1.7603    -3.1387     1.5167 C.ar    
  16 C16            2.9958    -2.9858     0.9026 C.ar    
  17 C17            3.2199    -1.9120     0.0461 C.ar    
  18 C18            2.2096    -0.9970    -0.1940 C.ar    
  19 C19           -3.8025     4.6535    -0.2347 C.ar    
  20 C20            1.6223     1.6213    -2.0346 C.2     
  21 N21            2.7507     2.1494    -2.5489 N.am    
  22 O22            0.8478     1.0274    -2.7546 O.2     
  23 O23            3.9797    -3.8928     1.1525 O.3     
  24 C24            5.0777    -3.9212     0.2343 C.3     
  25 C25            5.5289    -2.4767    -0.0205 C.3     
  26 O26            4.4232    -1.7522    -0.5702 O.3     
  27 F27           -7.1018     3.7634    -1.4728 F       
  28 C28            3.0416     2.0061    -3.9775 C.3     
  29 C29            4.3720     2.6904    -4.2982 C.3     
  30 F30           -5.6029     6.0000    -0.9851 F       
  31 F31           -3.0638     5.7588     0.0057 F       
  32 H32           -1.9098    -1.2976     0.6810 H       
  33 H33           -4.0927     0.2541     0.2281 H       
  34 H34           -5.9144     1.5055    -0.9239 H       
  35 H35           -2.2762     3.3059     0.4208 H       
  36 H36            1.2577     2.8270    -0.3119 H       
  37 H37            2.1198     1.3047     0.0164 H       
  38 H38           -0.2082    -2.3495     1.7651 H       
  39 H39            1.5885    -3.9743     2.1791 H       
  40 H40            2.3830    -0.1624    -0.8571 H       
  41 H41            3.3701     2.6244    -1.9730 H       
  42 H42            5.9006    -4.4931     0.6631 H       
  43 H43            4.7610    -4.3781    -0.7032 H       
  44 H44            5.8392    -2.0175     0.9181 H       
  45 H45            6.3599    -2.4702    -0.7259 H       
  46 H46            3.1070     0.9479    -4.2306 H       
  47 H47            2.2449     2.4702    -4.5589 H       
  48 H48            4.5884     2.5837    -5.3612 H       
  49 H49            4.3066     3.7486    -4.0451 H       
  50 H50            5.1687     2.2263    -3.7168 H       
@<TRIPOS>BOND
   1    1    2 1
   2    1   13 1
   3    1    5 1
   4    2    3 2
   5    2   12 1
   6    3    4 1
   7    3   32 1
   8    4    5 2
   9    4    6 1
  10    6    7 1
  11    6   33 1
  12    7    8 ar
  13    7   11 ar
  14    8    9 ar
  15    8   34 1
  16    9   10 ar
  17    9   27 1
  18   10   19 ar
  19   10   30 1
  20   11   19 ar
  21   11   35 1
  22   12   14 ar
  23   12   18 ar
  24   13   20 1
  25   13   36 1
  26   13   37 1
  27   14   15 ar
  28   14   38 1
  29   15   16 ar
  30   15   39 1
  31   16   17 ar
  32   16   23 1
  33   17   18 ar
  34   17   26 1
  35   18   40 1
  36   19   31 1
  37   20   21 am
  38   20   22 2
  39   21   28 1
  40   21   41 1
  41   23   24 1
  42   24   25 1
  43   24   42 1
  44   24   43 1
  45   25   26 1
  46   25   44 1
  47   25   45 1
  48   28   29 1
  49   28   46 1
  50   28   47 1
  51   29   48 1
  52   29   49 1
  53   29   50 1

#	End of record

