#	Name: ASD01816481
#	Creating user name:	WinNT
#	Creation time:	15. 06. 2019 19:35

#	Modifying user name:	WinNT
#	Modification time:	15. 06. 2019 19:35

#	Program:	/corina/corina34_cracker 3.40 0067  02.08.2006

@<TRIPOS>MOLECULE
ASD01816481
  65   71    0    0    0
SMALL
NO_CHARGES


@<TRIPOS>ATOM
   1 C1            -0.7557     2.8251    -0.3753 C.ar    
   2 C2            -1.0097     1.4872    -0.6302 C.ar    
   3 C3             0.0275     0.6019    -0.8384 C.ar    
   4 C4             1.3436     1.0481    -0.7938 C.ar    
   5 C5             1.5978     2.4054    -0.5351 C.ar    
   6 C6             0.5433     3.2882    -0.3268 C.ar    
   7 N7             2.3889     0.1649    -1.0014 N.pl3   
   8 C8             3.6785     0.5380    -0.9703 C.2     
   9 C9             4.0485     1.8373    -0.7268 C.2     
  10 C10            3.0015     2.8576    -0.4922 C.2     
  11 C11            5.3131     2.5594    -0.6263 C.2     
  12 N12            4.9924     3.8447    -0.3633 N.am    
  13 N13            3.6052     3.9932    -0.2889 N.2     
  14 C14            5.9139     4.8759    -0.1909 C.ar    
  15 O15            6.4341     2.0952    -0.7537 O.2     
  16 C16            2.0741    -1.2410    -1.2667 C.3     
  17 C17            1.9202    -1.4499    -2.7512 C.ar    
  18 C18            3.0195    -1.7911    -3.5176 C.ar    
  19 C19            2.8817    -1.9827    -4.8785 C.ar    
  20 C20            1.6378    -1.8329    -5.4767 C.ar    
  21 C21            0.5359    -1.4907    -4.7046 C.ar    
  22 C22            0.6790    -1.3054    -3.3433 C.ar    
  23 N23            1.4949    -2.0263    -6.8578 N.pl3   
  24 C24            0.3465    -1.9124    -7.5627 C.2     
  25 C25            0.6312    -2.1767    -8.8589 C.2     
  26 C26            1.9980    -2.4616    -8.9504 C.2     
  27 N27            2.5175    -2.3658    -7.7530 N.2     
  28 C28            6.8597     5.1378    -1.1728 C.ar    
  29 C29            7.7713     6.1601    -1.0001 C.ar    
  30 C30            7.7505     6.9311     0.1506 C.ar    
  31 C31            6.8189     6.6853     1.1365 C.ar    
  32 C32            5.8867     5.6585     0.9736 C.ar    
  33 C33            4.8868     5.3905     2.0246 C.2     
  34 O34            4.6009     4.2446     2.3137 O.2     
  35 N35            4.2901     6.4158     2.6642 N.am    
  36 C36            3.2146     6.2954     3.6594 C.3     
  37 C37            2.8318     7.7254     4.0956 C.3     
  38 C38            3.3211     8.5940     2.9068 C.3     
  39 C39            4.6121     7.8435     2.4866 C.3     
  40 H40           -1.5771     3.5087    -0.2184 H       
  41 H41           -2.0297     1.1339    -0.6659 H       
  42 H42           -0.1829    -0.4388    -1.0360 H       
  43 H43            0.7402     4.3314    -0.1284 H       
  44 H44            4.4447    -0.2038    -1.1410 H       
  45 H45            2.8813    -1.8709    -0.8929 H       
  46 H46            1.1439    -1.5061    -0.7642 H       
  47 H47            3.9868    -1.9075    -3.0516 H       
  48 H48            3.7407    -2.2485    -5.4766 H       
  49 H49           -0.4329    -1.3731    -5.1672 H       
  50 H50           -0.1778    -1.0392    -2.7421 H       
  51 H51           -0.6237    -1.6570    -7.1629 H       
  52 H52           -0.0724    -2.1691    -9.6783 H       
  53 H53            2.5332    -2.7127    -9.8543 H       
  54 H54            6.8826     4.5409    -2.0726 H       
  55 H55            8.5054     6.3597    -1.7667 H       
  56 H56            8.4680     7.7285     0.2761 H       
  57 H57            6.8075     7.2889     2.0320 H       
  58 H58            2.3516     5.8000     3.2145 H       
  59 H59            3.5678     5.7274     4.5201 H       
  60 H60            1.7526     7.8147     4.2200 H       
  61 H61            3.3509     8.0005     5.0137 H       
  62 H62            2.5885     8.6001     2.0997 H       
  63 H63            3.5497     9.6088     3.2324 H       
  64 H64            5.4447     8.1326     3.1277 H       
  65 H65            4.8473     8.0487     1.4422 H       
@<TRIPOS>BOND
   1    1    2 ar
   2    1    6 ar
   3    1   40 1
   4    2    3 ar
   5    2   41 1
   6    3    4 ar
   7    3   42 1
   8    4    5 ar
   9    4    7 1
  10    5    6 ar
  11    5   10 1
  12    6   43 1
  13    7    8 1
  14    7   16 1
  15    8    9 2
  16    8   44 1
  17    9   10 1
  18    9   11 1
  19   10   13 2
  20   11   12 am
  21   11   15 2
  22   12   13 1
  23   12   14 1
  24   14   28 ar
  25   14   32 ar
  26   16   17 1
  27   16   45 1
  28   16   46 1
  29   17   18 ar
  30   17   22 ar
  31   18   19 ar
  32   18   47 1
  33   19   20 ar
  34   19   48 1
  35   20   21 ar
  36   20   23 1
  37   21   22 ar
  38   21   49 1
  39   22   50 1
  40   23   24 1
  41   23   27 1
  42   24   25 2
  43   24   51 1
  44   25   26 1
  45   25   52 1
  46   26   27 2
  47   26   53 1
  48   28   29 ar
  49   28   54 1
  50   29   30 ar
  51   29   55 1
  52   30   31 ar
  53   30   56 1
  54   31   32 ar
  55   31   57 1
  56   32   33 1
  57   33   34 2
  58   33   35 am
  59   35   36 1
  60   35   39 1
  61   36   37 1
  62   36   58 1
  63   36   59 1
  64   37   38 1
  65   37   60 1
  66   37   61 1
  67   38   39 1
  68   38   62 1
  69   38   63 1
  70   39   64 1
  71   39   65 1

#	End of record

