#	Name: ASD01410559
#	Creating user name:	WinNT
#	Creation time:	15. 06. 2019 19:18

#	Modifying user name:	WinNT
#	Modification time:	15. 06. 2019 19:18

#	Program:	/corina/corina34_cracker 3.40 0067  02.08.2006

@<TRIPOS>MOLECULE
ASD01410559
  84   88    0    0    0
SMALL
NO_CHARGES


@<TRIPOS>ATOM
   1 C1             4.7358     6.8122    -2.7466 C.ar    
   2 C2             5.7528     6.4446    -3.6165 C.ar    
   3 C3             6.4727     5.2930    -3.3662 C.ar    
   4 N4             6.2047     4.5432    -2.3143 N.ar    
   5 C5             5.2433     4.8604    -1.4626 C.ar    
   6 C6             4.4790     6.0046    -1.6522 C.ar    
   7 O7             5.0013     4.0602    -0.3941 O.3     
   8 C8             5.6986     2.8965    -0.2970 C.ar    
   9 C9             6.9910     2.9028     0.2217 C.ar    
  10 C10            7.7077     1.7249     0.3244 C.ar    
  11 C11            7.1423     0.5280    -0.0899 C.ar    
  12 C12            5.8399     0.5160    -0.6134 C.ar    
  13 C13            5.1205     1.7111    -0.7078 C.ar    
  14 F14            7.5474     4.0657     0.6260 F       
  15 N15            7.8655    -0.6594     0.0129 N.am    
  16 C16            7.7136    -1.4494     1.0942 C.2     
  17 C17            8.7906    -1.0484    -1.0544 C.3     
  18 O18            8.2750    -2.5233     1.1443 O.2     
  19 C19            6.8462    -0.9985     2.2411 C.3     
  20 C20            6.0679     7.2929    -4.8216 C.3     
  21 C21            7.3542    -1.6243     3.5415 C.3     
  22 C22            6.4735    -1.1665     4.7059 C.3     
  23 C23            5.0297    -1.6077     4.4575 C.3     
  24 C24            4.5217    -0.9819     3.1570 C.3     
  25 C25            5.4024    -1.4397     1.9927 C.3     
  26 C26            4.1490    -1.1498     5.6218 C.3     
  27 C27            8.6357    -0.0908    -2.2376 C.3     
  28 O28            7.3467    -0.2681    -2.8283 O.3     
  29 O29           10.4128    -1.9842     0.4730 O.3     
  30 C30           10.2273    -0.9855    -0.5321 C.3     
  31 C31            7.0986     0.5836    -3.9486 C.3     
  32 C32           11.7286    -2.0110     1.0299 C.3     
  33 C33            5.8474     8.7967    -4.6460 C.3     
  34 N34            6.6644     9.2832    -3.5316 N.pl3   
  35 C35            7.2283     6.8486    -5.7144 C.3     
  36 C36            5.7851     6.6937    -6.2007 C.3     
  37 N37            7.9015     9.6217    -3.6259 N.2     
  38 C38            8.3241    10.0087    -2.4437 C.2     
  39 C39            7.2292     9.8822    -1.5857 C.2     
  40 N40            6.2408     9.4352    -2.3269 N.2     
  41 C41            3.3853     6.3622    -0.6791 C.3     
  42 F42            2.7676     7.5493    -1.0874 F       
  43 F43            2.4387     5.3327    -0.6425 F       
  44 F44            3.9341     6.5367     0.5959 F       
  45 C45            5.2319    -0.7503    -1.0556 C.2     
  46 O46            5.8243    -1.7987    -0.8915 O.2     
  47 O47            4.0186    -0.7466    -1.6422 O.3     
  48 H48            4.1608     7.7104    -2.9172 H       
  49 H49            7.2649     5.0024    -4.0402 H       
  50 H50            8.7095     1.7369     0.7275 H       
  51 H51            4.1181     1.7089    -1.1096 H       
  52 H52            8.5656    -2.0647    -1.3776 H       
  53 H53            6.8855     0.0879     2.3210 H       
  54 H54            7.3149    -2.7106     3.4615 H       
  55 H55            8.3827    -1.3100     3.7185 H       
  56 H56            6.8354    -1.6123     5.6323 H       
  57 H57            6.5128    -0.0801     4.7858 H       
  58 H58            4.9904    -2.6940     4.3775 H       
  59 H59            3.4931    -1.2962     2.9801 H       
  60 H60            4.5610     0.1045     3.2370 H       
  61 H61            5.0405    -0.9939     1.0662 H       
  62 H62            5.3631    -2.5261     1.9127 H       
  63 H63            4.1883    -0.0635     5.7018 H       
  64 H64            3.1204    -1.4642     5.4449 H       
  65 H65            4.5109    -1.5957     6.5483 H       
  66 H66            8.7375     0.9369    -1.8890 H       
  67 H67            9.4070    -0.3012    -2.9786 H       
  68 H68           10.9208    -1.1638    -1.3539 H       
  69 H69           10.4158    -0.0006    -0.1048 H       
  70 H70            7.1684     1.6254    -3.6355 H       
  71 H71            7.8379     0.3873    -4.7251 H       
  72 H72            6.1002     0.3880    -4.3397 H       
  73 H73           11.9482    -1.0473     1.4896 H       
  74 H74           11.7879    -2.7954     1.7844 H       
  75 H75           12.4532    -2.2106     0.2405 H       
  76 H76            6.1346     9.3153    -5.5606 H       
  77 H77            4.7950     8.9874    -4.4353 H       
  78 H78            7.8343     7.6276    -6.1769 H       
  79 H79            7.7638     5.9427    -5.4301 H       
  80 H80            5.3712     5.6860    -6.2363 H       
  81 H81            5.4423     7.3709    -6.9830 H       
  82 H82            9.3150    10.3536    -2.1876 H       
  83 H83            7.1998    10.1095    -0.5303 H       
  84 H84            3.6604    -1.6022    -1.9155 H       
@<TRIPOS>BOND
   1    1    2 ar
   2    1    6 ar
   3    1   48 1
   4    2    3 ar
   5    2   20 1
   6    3    4 ar
   7    3   49 1
   8    4    5 ar
   9    5    6 ar
  10    5    7 1
  11    6   41 1
  12    7    8 1
  13    8    9 ar
  14    8   13 ar
  15    9   10 ar
  16    9   14 1
  17   10   11 ar
  18   10   50 1
  19   11   12 ar
  20   11   15 1
  21   12   13 ar
  22   12   45 1
  23   13   51 1
  24   15   16 am
  25   15   17 1
  26   16   18 2
  27   16   19 1
  28   17   27 1
  29   17   30 1
  30   17   52 1
  31   19   21 1
  32   19   25 1
  33   19   53 1
  34   20   33 1
  35   20   35 1
  36   20   36 1
  37   21   22 1
  38   21   54 1
  39   21   55 1
  40   22   23 1
  41   22   56 1
  42   22   57 1
  43   23   24 1
  44   23   26 1
  45   23   58 1
  46   24   25 1
  47   24   59 1
  48   24   60 1
  49   25   61 1
  50   25   62 1
  51   26   63 1
  52   26   64 1
  53   26   65 1
  54   27   28 1
  55   27   66 1
  56   27   67 1
  57   28   31 1
  58   29   30 1
  59   29   32 1
  60   30   68 1
  61   30   69 1
  62   31   70 1
  63   31   71 1
  64   31   72 1
  65   32   73 1
  66   32   74 1
  67   32   75 1
  68   33   34 1
  69   33   76 1
  70   33   77 1
  71   34   37 1
  72   34   40 1
  73   35   36 1
  74   35   78 1
  75   35   79 1
  76   36   80 1
  77   36   81 1
  78   37   38 2
  79   38   39 1
  80   38   82 1
  81   39   40 2
  82   39   83 1
  83   41   42 1
  84   41   43 1
  85   41   44 1
  86   45   46 2
  87   45   47 1
  88   47   84 1

#	End of record

