#	Name: ASD01870103
#	Creating user name:	WinNT
#	Creation time:	15. 06. 2019 19:38

#	Modifying user name:	WinNT
#	Modification time:	15. 06. 2019 19:38

#	Program:	/corina/corina34_cracker 3.40 0067  02.08.2006

@<TRIPOS>MOLECULE
ASD01870103
  39   40    0    0    0
SMALL
NO_CHARGES


@<TRIPOS>ATOM
   1 C1            -0.1749     1.4716    -0.5686 C.2     
   2 C2            -0.1527    -0.0034    -0.5721 C.ar    
   3 C3             0.9025    -0.6909    -1.1874 C.ar    
   4 C4             0.9137    -2.0774    -1.1850 C.ar    
   5 C5            -0.1109    -2.7773    -0.5788 C.ar    
   6 C6            -1.1566    -2.1017     0.0304 C.ar    
   7 C7            -1.1802    -0.7227     0.0427 C.ar    
   8 O8             0.7239     2.0944    -1.1005 O.2     
   9 N9            -1.1941     2.1288     0.0193 N.am    
  10 O10            1.9085    -0.0026    -1.7831 O.3     
  11 C11           -1.1618     3.5234     0.1193 C.ar    
  12 C12           -2.3380     4.2558     0.0198 C.ar    
  13 C13           -2.3027     5.6326     0.1194 C.ar    
  14 C14           -1.0980     6.2825     0.3176 C.ar    
  15 C15            0.0745     5.5565     0.4167 C.ar    
  16 C16            0.0453     4.1786     0.3240 C.ar    
  17 C17           -3.5781     6.4280     0.0115 C.3     
  18 C18           -4.5408     6.0011     1.1215 C.3     
  19 C19           -3.2634     7.9184     0.1547 C.3     
  20 C20           -4.2252     6.1720    -1.3511 C.3     
  21 Cl21          -2.4380    -2.9950     0.7880 Cl      
  22 H22            1.7248    -2.6108    -1.6583 H       
  23 H23           -0.0975    -3.8572    -0.5798 H       
  24 H24           -1.9941    -0.1999     0.5230 H       
  25 H25           -1.9501     1.6346     0.3730 H       
  26 H26            2.6477     0.2021    -1.1942 H       
  27 H27           -3.2789     3.7490    -0.1357 H       
  28 H28           -1.0731     7.3594     0.3949 H       
  29 H29            1.0136     6.0669     0.5711 H       
  30 H30            0.9609     3.6117     0.4063 H       
  31 H31           -4.0798     6.1835     2.0922 H       
  32 H32           -5.4633     6.5764     1.0435 H       
  33 H33           -4.7650     4.9393     1.0195 H       
  34 H34           -2.5776     8.2225    -0.6360 H       
  35 H35           -4.1859     8.4937     0.0767 H       
  36 H36           -2.8024     8.1008     1.1255 H       
  37 H37           -4.4494     5.1102    -1.4531 H       
  38 H38           -5.1477     6.7473    -1.4291 H       
  39 H39           -3.5394     6.4761    -2.1418 H       
@<TRIPOS>BOND
   1    1    2 1
   2    1    8 2
   3    1    9 am
   4    2    3 ar
   5    2    7 ar
   6    3    4 ar
   7    3   10 1
   8    4    5 ar
   9    4   22 1
  10    5    6 ar
  11    5   23 1
  12    6    7 ar
  13    6   21 1
  14    7   24 1
  15    9   11 1
  16    9   25 1
  17   10   26 1
  18   11   12 ar
  19   11   16 ar
  20   12   13 ar
  21   12   27 1
  22   13   14 ar
  23   13   17 1
  24   14   15 ar
  25   14   28 1
  26   15   16 ar
  27   15   29 1
  28   16   30 1
  29   17   18 1
  30   17   20 1
  31   17   19 1
  32   18   31 1
  33   18   32 1
  34   18   33 1
  35   19   34 1
  36   19   35 1
  37   19   36 1
  38   20   37 1
  39   20   38 1
  40   20   39 1

#	End of record

