#	Name: ASD01913402
#	Creating user name:	WinNT
#	Creation time:	15. 06. 2019 20:01

#	Modifying user name:	WinNT
#	Modification time:	15. 06. 2019 20:01

#	Program:	/corina/corina34_cracker 3.40 0067  02.08.2006

@<TRIPOS>MOLECULE
ASD01913402
  37   39    0    0    0
SMALL
NO_CHARGES


@<TRIPOS>ATOM
   1 C1            -0.1083    -0.7205    -2.1595 C.ar    
   2 C2            -0.5525    -0.0423    -1.0290 C.ar    
   3 C3            -0.5255     1.3485    -1.0415 C.ar    
   4 N4            -0.0816     1.9723    -2.1203 N.ar    
   5 C5             0.3309     1.2939    -3.1722 C.ar    
   6 N6             0.3208    -0.0237    -3.1988 N.ar    
   7 C7            -1.0074    -2.0790     0.0069 C.ar    
   8 C8             0.1733    -2.7853     0.1914 C.ar    
   9 C9             0.1723    -4.1684     0.1446 C.ar    
  10 C10           -1.0038    -4.8545    -0.0860 C.ar    
  11 C11           -2.1956    -4.1518    -0.2726 C.ar    
  12 C12           -2.1925    -2.7576    -0.2251 C.ar    
  13 C13           -3.4565    -4.8826    -0.5201 C.2     
  14 N14           -3.4568    -6.2296    -0.5660 N.am    
  15 C15           -4.6590    -6.9220    -0.6933 C.ar    
  16 O16           -4.4930    -4.2687    -0.6823 O.2     
  17 O17           -1.0016    -0.7211     0.0595 O.3     
  18 Cl18           1.6537    -5.0434     0.3758 Cl      
  19 C19           -4.6649    -8.3104    -0.6231 C.ar    
  20 C20           -5.8662    -8.9856    -0.7506 C.ar    
  21 C21           -7.0244    -8.2458    -0.9448 C.ar    
  22 C22           -6.9448    -6.8682    -1.0045 C.ar    
  23 N23           -5.7861    -6.2514    -0.8746 N.ar    
  24 C24           -5.9156   -10.4902    -0.6808 C.3     
  25 F25           -6.1068   -10.8894     0.6464 F       
  26 F26           -6.9743   -10.9590    -1.4659 F       
  27 F27           -4.7114   -11.0190    -1.1579 F       
  28 H28           -0.1097    -1.8001    -2.1866 H       
  29 H29           -0.8624     1.9108    -0.1831 H       
  30 H30            0.6874     1.8333    -4.0373 H       
  31 H31            1.0959    -2.2536     0.3717 H       
  32 H32           -1.0015    -5.9338    -0.1224 H       
  33 H33           -3.1116    -2.2089    -0.3683 H       
  34 H34           -2.6199    -6.7169    -0.5105 H       
  35 H35           -3.7445    -8.8547    -0.4714 H       
  36 H36           -7.9780    -8.7422    -1.0484 H       
  37 H37           -7.8433    -6.2884    -1.1554 H       
@<TRIPOS>BOND
   1    1    2 ar
   2    1    6 ar
   3    1   28 1
   4    2    3 ar
   5    2   17 1
   6    3    4 ar
   7    3   29 1
   8    4    5 ar
   9    5    6 ar
  10    5   30 1
  11    7    8 ar
  12    7   12 ar
  13    7   17 1
  14    8    9 ar
  15    8   31 1
  16    9   10 ar
  17    9   18 1
  18   10   11 ar
  19   10   32 1
  20   11   12 ar
  21   11   13 1
  22   12   33 1
  23   13   14 am
  24   13   16 2
  25   14   15 1
  26   14   34 1
  27   15   19 ar
  28   15   23 ar
  29   19   20 ar
  30   19   35 1
  31   20   21 ar
  32   20   24 1
  33   21   22 ar
  34   21   36 1
  35   22   23 ar
  36   22   37 1
  37   24   25 1
  38   24   26 1
  39   24   27 1

#	End of record

