#	Name: ASD03570050
#	Creating user name:	WinNT
#	Creation time:	15. 06. 2019 20:43

#	Modifying user name:	WinNT
#	Modification time:	15. 06. 2019 20:43

#	Program:	/corina/corina34_cracker 3.40 0067  02.08.2006

@<TRIPOS>MOLECULE
ASD03570050
  63   66    0    0    0
SMALL
NO_CHARGES


@<TRIPOS>ATOM
   1 C1             0.5244     3.4173    -2.5559 C.ar    
   2 C2             0.8600     2.9697    -3.8255 C.ar    
   3 C3             1.9643     2.1564    -3.9865 C.ar    
   4 N4             2.7023     1.8004    -2.9518 N.ar    
   5 C5             2.4195     2.2033    -1.7251 C.ar    
   6 C6             1.3193     3.0266    -1.4852 C.ar    
   7 N7             1.0206     3.4536    -0.1843 N.am    
   8 C8             0.3770     4.6217     0.0104 C.2     
   9 N9            -0.0094     4.9796     1.2510 N.am    
  10 O10            0.1449     5.3527    -0.9333 O.2     
  11 C11           -0.7708     6.1408     1.4401 C.ar    
  12 C12           -1.7950     6.1547     2.3774 C.ar    
  13 C13           -0.4975     7.2795     0.6944 C.ar    
  14 C14           -1.2479     8.4236     0.8816 C.ar    
  15 C15           -2.2742     8.4353     1.8148 C.ar    
  16 C16           -2.5446     7.2994     2.5636 C.ar    
  17 O17           -3.0121     9.5625     1.9993 O.3     
  18 C18           -4.0531     9.5037     2.9766 C.3     
  19 O19            3.2060     1.8122    -0.6902 O.3     
  20 C20            4.2109     0.9348    -0.9486 C.ar    
  21 C21            4.0225    -0.4183    -0.7174 C.ar    
  22 C22            5.0457    -1.3083    -0.9819 C.ar    
  23 C23            6.2506    -0.8466    -1.4724 C.ar    
  24 C24            6.4446     0.5081    -1.7032 C.ar    
  25 C25            5.4240     1.3977    -1.4500 C.ar    
  26 C26            5.5811     2.8753    -1.7014 C.3     
  27 C27            7.7816     0.9613    -2.2284 C.3     
  28 N28            7.6806     2.3099    -2.7949 N.3     
  29 C29            7.0629     3.2268    -1.8371 C.3     
  30 C30            8.9971     2.8006    -3.2240 C.3     
  31 C31            9.5018     1.9518    -4.3926 C.3     
  32 C32            8.5831     2.1488    -5.6001 C.3     
  33 C33           10.9239     2.3815    -4.7582 C.3     
  34 F34           -3.5020     9.2062     4.2276 F       
  35 F35           -4.7065    10.7392     3.0367 F       
  36 F36           -4.9697     8.5081     2.6221 F       
  37 H37           -0.3318     4.0578    -2.4039 H       
  38 H38            0.2632     3.2543    -4.6795 H       
  39 H39            2.2277     1.8062    -4.9736 H       
  40 H40            1.2770     2.9086     0.5759 H       
  41 H41            0.2396     4.4334     2.0130 H       
  42 H42           -2.0056     5.2703     2.9604 H       
  43 H43            0.3019     7.2707    -0.0317 H       
  44 H44           -1.0355     9.3095     0.3016 H       
  45 H45           -3.3413     7.3103     3.2926 H       
  46 H46            3.0793    -0.7760    -0.3316 H       
  47 H47            4.9031    -2.3641    -0.8046 H       
  48 H48            7.0485    -1.5449    -1.6779 H       
  49 H49            5.0600     3.1435    -2.6204 H       
  50 H50            5.1520     3.4318    -0.8682 H       
  51 H51            8.5052     0.9668    -1.4133 H       
  52 H52            8.1172     0.2704    -3.0019 H       
  53 H53            7.1650     4.2531    -2.1899 H       
  54 H54            7.5551     3.1181    -0.8706 H       
  55 H55            8.9119     3.8403    -3.5402 H       
  56 H56            9.6995     2.7299    -2.3935 H       
  57 H57            9.5026     0.9006    -4.1044 H       
  58 H58            8.5823     3.2000    -5.8883 H       
  59 H59            8.9427     1.5441    -6.4327 H       
  60 H60            7.5699     1.8427    -5.3397 H       
  61 H61           11.5784     2.2411    -3.8979 H       
  62 H62           11.2835     1.7768    -5.5908 H       
  63 H63           10.9231     3.4327    -5.0464 H       
@<TRIPOS>BOND
   1    1    2 ar
   2    1    6 ar
   3    1   37 1
   4    2    3 ar
   5    2   38 1
   6    3    4 ar
   7    3   39 1
   8    4    5 ar
   9    5    6 ar
  10    5   19 1
  11    6    7 1
  12    7    8 am
  13    7   40 1
  14    8    9 am
  15    8   10 2
  16    9   11 1
  17    9   41 1
  18   11   13 ar
  19   11   12 ar
  20   12   16 ar
  21   12   42 1
  22   13   14 ar
  23   13   43 1
  24   14   15 ar
  25   14   44 1
  26   15   16 ar
  27   15   17 1
  28   16   45 1
  29   17   18 1
  30   18   34 1
  31   18   35 1
  32   18   36 1
  33   19   20 1
  34   20   21 ar
  35   20   25 ar
  36   21   22 ar
  37   21   46 1
  38   22   23 ar
  39   22   47 1
  40   23   24 ar
  41   23   48 1
  42   24   25 ar
  43   24   27 1
  44   25   26 1
  45   26   29 1
  46   26   49 1
  47   26   50 1
  48   27   28 1
  49   27   51 1
  50   27   52 1
  51   28   29 1
  52   28   30 1
  53   29   53 1
  54   29   54 1
  55   30   31 1
  56   30   55 1
  57   30   56 1
  58   31   32 1
  59   31   33 1
  60   31   57 1
  61   32   58 1
  62   32   59 1
  63   32   60 1
  64   33   61 1
  65   33   62 1
  66   33   63 1

#	End of record

