#	Name: ASD01914903
#	Creating user name:	WinNT
#	Creation time:	15. 06. 2019 20:04

#	Modifying user name:	WinNT
#	Modification time:	15. 06. 2019 20:04

#	Program:	/corina/corina34_cracker 3.40 0067  02.08.2006

@<TRIPOS>MOLECULE
ASD01914903
  41   42    0    0    0
SMALL
NO_CHARGES


@<TRIPOS>ATOM
   1 C1            -0.0183     1.4976     0.0103 C.3     
   2 C2             0.0021    -0.0041     0.0020 C.2     
   3 C3             1.0679    -0.7068    -0.3376 C.2     
   4 C4             2.3661    -0.0652    -0.7418 C.3     
   5 C5             2.1282     1.4068    -1.0880 C.3     
   6 N6             1.3523     2.0243     0.0000 N.3     
   7 C7             1.3527     3.4885    -0.1184 C.3     
   8 C8            -2.8526    -1.6077     1.5662 C.2     
   9 N9            -1.7190    -0.8830     1.6697 N.pl3   
  10 C10           -1.2179    -0.7239     0.3895 C.2     
  11 C11           -2.0976    -1.3785    -0.4500 C.2     
  12 N12           -3.0714    -1.8977     0.3116 N.2     
  13 S13           -1.9651    -1.5073    -2.2023 S.3     
  14 C14           -3.4279    -2.4814    -2.6517 C.3     
  15 C15           -3.4592    -2.6846    -4.1678 C.3     
  16 C16           -4.6930    -3.5062    -4.5469 C.3     
  17 C17           -4.7243    -3.7094    -6.0630 C.3     
  18 C18           -5.9581    -4.5309    -6.4420 C.3     
  19 H19           -0.5495     1.8563    -0.8713 H       
  20 H20           -0.5325     1.8467     0.9057 H       
  21 H21            1.0044    -1.7848    -0.3240 H       
  22 H22            3.0765    -0.1338     0.0819 H       
  23 H23            2.7703    -0.5817    -1.6124 H       
  24 H24            3.0854     1.9180    -1.1907 H       
  25 H25            1.5701     1.4778    -2.0216 H       
  26 H26            0.8182     3.9215     0.7272 H       
  27 H27            2.3802     3.8523    -0.1235 H       
  28 H28            0.8600     3.7781    -1.0465 H       
  29 H29           -3.4796    -1.9057     2.3935 H       
  30 H30           -1.3287    -0.5380     2.4879 H       
  31 H31           -3.3850    -3.4512    -2.1559 H       
  32 H32           -4.3274    -1.9521    -2.3374 H       
  33 H33           -3.5021    -1.7148    -4.6636 H       
  34 H34           -2.5596    -3.2138    -4.4821 H       
  35 H35           -4.6501    -4.4759    -4.0511 H       
  36 H36           -5.5925    -2.9769    -4.2325 H       
  37 H37           -4.7672    -2.7396    -6.5587 H       
  38 H38           -3.8248    -4.2386    -6.3773 H       
  39 H39           -5.9152    -5.5007    -5.9463 H       
  40 H40           -6.8577    -4.0017    -6.1277 H       
  41 H41           -5.9804    -4.6757    -7.5221 H       
@<TRIPOS>BOND
   1    1    2 1
   2    1    6 1
   3    1   19 1
   4    1   20 1
   5    2    3 2
   6    2   10 1
   7    3    4 1
   8    3   21 1
   9    4    5 1
  10    4   22 1
  11    4   23 1
  12    5    6 1
  13    5   24 1
  14    5   25 1
  15    6    7 1
  16    7   26 1
  17    7   27 1
  18    7   28 1
  19    8    9 1
  20    8   12 2
  21    8   29 1
  22    9   10 1
  23    9   30 1
  24   10   11 2
  25   11   12 1
  26   11   13 1
  27   13   14 1
  28   14   15 1
  29   14   31 1
  30   14   32 1
  31   15   16 1
  32   15   33 1
  33   15   34 1
  34   16   17 1
  35   16   35 1
  36   16   36 1
  37   17   18 1
  38   17   37 1
  39   17   38 1
  40   18   39 1
  41   18   40 1
  42   18   41 1

#	End of record

