#	Name: ASD01911775
#	Creating user name:	WinNT
#	Creation time:	15. 06. 2019 19:58

#	Modifying user name:	WinNT
#	Modification time:	15. 06. 2019 19:58

#	Program:	/corina/corina34_cracker 3.40 0067  02.08.2006

@<TRIPOS>MOLECULE
ASD01911775
  40   42    0    0    0
SMALL
NO_CHARGES


@<TRIPOS>ATOM
   1 C1            -0.0187     1.5258     0.0104 C.3     
   2 C2             0.0021    -0.0041     0.0020 C.3     
   3 C3            -1.4117    -0.5257     0.0127 C.2     
   4 C4            -2.1047    -0.8917     1.0981 C.2     
   5 S5            -2.4399    -0.7516    -1.4008 S.3     
   6 C6            -3.7337    -1.3403    -0.3599 C.2     
   7 N7            -3.3254    -1.3190     0.8805 N.2     
   8 C8            -5.0268    -1.7681    -0.8022 C.1     
   9 C9            -6.0868    -2.1188    -1.1648 C.1     
  10 C10           -7.3799    -2.5466    -1.6071 C.ar    
  11 C11           -8.3263    -2.9951    -0.6810 C.ar    
  12 C12           -9.5695    -3.4050    -1.1145 C.ar    
  13 C13           -9.8814    -3.3733    -2.4625 C.ar    
  14 C14           -8.9496    -2.9311    -3.3853 C.ar    
  15 C15           -7.7042    -2.5125    -2.9665 C.ar    
  16 C16           -0.7348     2.0192     1.2692 C.3     
  17 C17            1.4167     2.0553    -0.0004 C.3     
  18 C18            1.3960     3.5852     0.0080 C.3     
  19 C19            0.6798     4.0786     1.2668 C.3     
  20 C20           -0.7556     3.5490     1.2776 C.3     
  21 O21            0.6709    -0.4649    -1.1737 O.3     
  22 H22           -0.5459     1.8868    -0.8726 H       
  23 H23            0.5293    -0.3651     0.8851 H       
  24 H24           -1.6842    -0.8388     2.0915 H       
  25 H25           -8.0842    -3.0207     0.3712 H       
  26 H26          -10.3016    -3.7520    -0.4004 H       
  27 H27          -10.8567    -3.6956    -2.7960 H       
  28 H28           -9.2001    -2.9095    -4.4356 H       
  29 H29           -6.9782    -2.1673    -3.6878 H       
  30 H30           -1.7574     1.6419     1.2770 H       
  31 H31           -0.2076     1.6581     2.1523 H       
  32 H32            1.9439     1.6943     0.8826 H       
  33 H33            1.9269     1.7038    -0.8972 H       
  34 H34            2.4186     3.9625     0.0002 H       
  35 H35            0.8688     3.9463    -0.8751 H       
  36 H36            1.2070     3.7175     2.1498 H       
  37 H37            0.6650     5.1685     1.2728 H       
  38 H38           -1.2827     3.9101     0.3946 H       
  39 H39           -1.2657     3.9005     2.1744 H       
  40 H40            0.2557    -0.1806    -1.9994 H       
@<TRIPOS>BOND
   1    1    2 1
   2    1   17 1
   3    1   16 1
   4    1   22 1
   5    2    3 1
   6    2   21 1
   7    2   23 1
   8    3    4 2
   9    3    5 1
  10    4    7 1
  11    4   24 1
  12    5    6 1
  13    6    7 2
  14    6    8 1
  15    8    9 3
  16    9   10 1
  17   10   11 ar
  18   10   15 ar
  19   11   12 ar
  20   11   25 1
  21   12   13 ar
  22   12   26 1
  23   13   14 ar
  24   13   27 1
  25   14   15 ar
  26   14   28 1
  27   15   29 1
  28   16   20 1
  29   16   30 1
  30   16   31 1
  31   17   18 1
  32   17   32 1
  33   17   33 1
  34   18   19 1
  35   18   34 1
  36   18   35 1
  37   19   20 1
  38   19   36 1
  39   19   37 1
  40   20   38 1
  41   20   39 1
  42   21   40 1

#	End of record

