#	Name: ASD01121013
#	Creating user name:	WinNT
#	Creation time:	15. 06. 2019 18:59

#	Modifying user name:	WinNT
#	Modification time:	15. 06. 2019 18:59

#	Program:	/corina/corina34_cracker 3.40 0067  02.08.2006

@<TRIPOS>MOLECULE
ASD01121013
  46   47    0    0    0
SMALL
NO_CHARGES


@<TRIPOS>ATOM
   1 C1            -0.0512     1.3227    -0.0022 C.ar    
   2 C2             1.0925     2.1190    -0.0010 C.ar    
   3 C3             0.0866    -0.0575    -0.0145 C.ar    
   4 S4             0.9680     3.8765     0.0150 S.3     
   5 C5             2.3382     1.4915    -0.0123 C.ar    
   6 N6             1.2876    -0.6189    -0.0245 N.ar    
   7 C7             2.3968     0.1073    -0.0242 C.ar    
   8 N8             3.6370    -0.5295    -0.0355 N.am    
   9 C9             3.7059    -1.8722     0.0584 C.2     
  10 O10            2.6953    -2.5211     0.2475 O.2     
  11 N11            4.8952    -2.4957    -0.0575 N.am    
  12 S12            4.9799    -4.1455     0.0578 S.o2    
  13 C13            4.0953    -4.8103    -1.3133 C.2     
  14 O14            6.3440    -4.4919    -0.1386 O.2     
  15 O15            4.2465    -4.5046     1.2207 O.2     
  16 S16            2.3801    -5.1996    -1.3210 S.3     
  17 C17            4.6228    -5.0900    -2.5062 C.2     
  18 C18            2.4804    -5.7436    -2.9905 C.2     
  19 C19            3.7319    -5.6062    -3.4313 C.2     
  20 C20            1.3278    -6.2785    -3.8007 C.3     
  21 C21            4.1449    -5.9860    -4.8300 C.3     
  22 C22            1.2385    -7.7953    -3.6210 C.3     
  23 O23            0.1456    -8.3024    -4.3893 O.3     
  24 C24           -0.0267    -9.7176    -4.2910 C.3     
  25 H25            4.4502    -0.0062    -0.1109 H       
  26 H26            5.7015    -1.9780    -0.2084 H       
  27 N27           -1.0477    -0.8613    -0.0158 N.pl3   
  28 C28           -0.8239     4.1586     0.0264 C.3     
  29 H29           -1.0321     1.7744     0.0108 H       
  30 H30            3.2455     2.0772    -0.0121 H       
  31 H31            5.6658    -4.9257    -2.7331 H       
  32 H32            0.4003    -5.8172    -3.4615 H       
  33 H33            1.4852    -6.0460    -4.8539 H       
  34 H34            4.0265    -5.1265    -5.4898 H       
  35 H35            5.1883    -6.3013    -4.8277 H       
  36 H36            3.5187    -6.8049    -5.1840 H       
  37 H37            2.1661    -8.2565    -3.9602 H       
  38 H38            1.0811    -8.0277    -2.5678 H       
  39 H39           -0.2104    -9.9900    -3.2516 H       
  40 H40           -0.8758   -10.0236    -4.9022 H       
  41 H41            0.8745   -10.2188    -4.6441 H       
  42 H42           -1.9291    -0.4564    -0.0081 H       
  43 H43           -0.9577    -1.8271    -0.0243 H       
  44 H44           -1.2672     3.7152    -0.8652 H       
  45 H45           -1.2582     3.6997     0.9146 H       
  46 H46           -1.0230     5.2302     0.0368 H       
@<TRIPOS>BOND
   1    1    2 ar
   2    1    3 ar
   3    1   29 1
   4    2    4 1
   5    2    5 ar
   6    3    6 ar
   7    3   27 1
   8    4   28 1
   9    5    7 ar
  10    5   30 1
  11    6    7 ar
  12    7    8 1
  13    8   25 1
  14    8    9 am
  15    9   10 2
  16    9   11 am
  17   11   26 1
  18   11   12 am
  19   12   13 1
  20   12   15 2
  21   12   14 2
  22   13   16 1
  23   13   17 2
  24   16   18 1
  25   17   19 1
  26   17   31 1
  27   18   19 2
  28   18   20 1
  29   19   21 1
  30   20   22 1
  31   20   32 1
  32   20   33 1
  33   21   34 1
  34   21   35 1
  35   21   36 1
  36   22   23 1
  37   22   37 1
  38   22   38 1
  39   23   24 1
  40   24   39 1
  41   24   40 1
  42   24   41 1
  43   27   42 1
  44   27   43 1
  45   28   44 1
  46   28   45 1
  47   28   46 1

#	End of record

