#	Name: ASD01478124
#	Creating user name:	WinNT
#	Creation time:	15. 06. 2019 19:21

#	Modifying user name:	WinNT
#	Modification time:	15. 06. 2019 19:21

#	Program:	/corina/corina34_cracker 3.40 0067  02.08.2006

@<TRIPOS>MOLECULE
ASD01478124
  77   80    0    0    0
SMALL
NO_CHARGES


@<TRIPOS>ATOM
   1 C1            -1.4624     0.4236    -0.4809 C.2     
   2 N2            -1.0591    -0.8512    -0.3120 N.am    
   3 O3            -0.6404     1.3069    -0.6244 O.2     
   4 O4            -2.7761     0.7177    -0.4961 O.3     
   5 C5             0.3703    -1.1721    -0.3015 C.3     
   6 C6             0.5687    -2.6310    -0.7176 C.3     
   7 C7             2.0649    -2.9311    -0.8275 C.3     
   8 N8             2.2541    -4.2802    -1.3661 N.am    
   9 S9             2.4895    -4.4976    -2.9908 S.o2    
  10 O10            2.0926    -5.8314    -3.2789 O.2     
  11 O11            1.9251    -3.3629    -3.6334 O.2     
  12 C12            4.2257    -4.4215    -3.2811 C.ar    
  13 C13            4.9871    -5.5739    -3.2251 C.ar    
  14 C14            6.3492    -5.5141    -3.4528 C.ar    
  15 C15            6.9500    -4.3020    -3.7369 C.ar    
  16 C16            6.1885    -3.1497    -3.7938 C.ar    
  17 C17            4.8256    -3.2101    -3.5704 C.ar    
  18 C18            8.4351    -4.2367    -3.9841 C.3     
  19 O19            8.6946    -4.4202    -5.3773 O.3     
  20 C20            2.2350    -5.4371    -0.4675 C.3     
  21 C21            3.4127    -5.3468     0.5051 C.3     
  22 C22            3.3087    -6.4711     1.5376 C.3     
  23 C23            4.7252    -5.4850    -0.2689 C.3     
  24 O24           -0.0188    -3.4898     0.2619 O.3     
  25 C25            0.9296    -0.9630     1.1072 C.3     
  26 C26            0.8461     0.4975     1.4692 C.ar    
  27 C27           -0.2835     0.9911     2.0947 C.ar    
  28 C28           -0.3601     2.3308     2.4266 C.ar    
  29 C29            0.6931     3.1768     2.1336 C.ar    
  30 C30            1.8231     2.6830     1.5090 C.ar    
  31 C31            1.9015     1.3425     1.1809 C.ar    
  32 C32           -4.2973     3.9840     0.3321 C.3     
  33 C33           -5.2173     3.4420    -0.7952 C.3     
  34 C34           -4.4969     2.2254    -1.4008 C.3     
  35 C35           -3.1375     2.1116    -0.6823 C.3     
  36 C36           -3.3731     2.7975     0.6848 C.3     
  37 C37           -4.4661     5.5824    -1.2652 C.3     
  38 O38           -3.5197     4.9967    -0.3456 O.3     
  39 O39           -5.2534     4.4942    -1.7768 O.3     
  40 H40           -1.7153    -1.5564    -0.1974 H       
  41 H41            0.8941    -0.5203    -1.0008 H       
  42 H42            0.0921    -2.8014    -1.6829 H       
  43 H43            2.5332    -2.2054    -1.4925 H       
  44 H44            2.5218    -2.8667     0.1600 H       
  45 H45            4.5177    -6.5209    -3.0032 H       
  46 H46            6.9442    -6.4144    -3.4084 H       
  47 H47            6.6579    -2.2026    -4.0154 H       
  48 H48            4.2301    -2.3104    -3.6184 H       
  49 H49            8.8135    -3.2642    -3.6691 H       
  50 H50            8.9330    -5.0219    -3.4153 H       
  51 H51            9.6327    -4.3900    -5.6100 H       
  52 H52            1.3005    -5.4461     0.0934 H       
  53 H53            2.3165    -6.3531    -1.0526 H       
  54 H54            3.3906    -4.3831     1.0139 H       
  55 H55            3.3307    -7.4348     1.0289 H       
  56 H56            4.1476    -6.4068     2.2306 H       
  57 H57            2.3736    -6.3726     2.0891 H       
  58 H58            4.7502    -6.4516    -0.7721 H       
  59 H59            4.7960    -4.6881    -1.0092 H       
  60 H60            5.5643    -5.4138     0.4231 H       
  61 H61            0.4157    -3.4567     1.1252 H       
  62 H62            0.3477    -1.5477     1.8197 H       
  63 H63            1.9703    -1.2857     1.1366 H       
  64 H64           -1.1064     0.3301     2.3236 H       
  65 H65           -1.2430     2.7166     2.9146 H       
  66 H66            0.6330     4.2236     2.3923 H       
  67 H67            2.6458     3.3441     1.2797 H       
  68 H68            2.7858     0.9559     0.6962 H       
  69 H69           -4.8502     4.3618     1.1921 H       
  70 H70           -6.2081     3.1822    -0.4225 H       
  71 H71           -5.0842     1.3226    -1.2329 H       
  72 H72           -4.3426     2.3771    -2.4691 H       
  73 H73           -2.3641     2.6356    -1.2439 H       
  74 H74           -2.4320     3.1543     1.1031 H       
  75 H75           -3.8688     2.1163     1.3764 H       
  76 H76           -5.1052     6.2942    -0.7427 H       
  77 H77           -3.9390     6.0789    -2.0799 H       
@<TRIPOS>BOND
   1    1    2 am
   2    1    3 2
   3    1    4 1
   4    2    5 1
   5    2   40 1
   6    4   35 1
   7    5    6 1
   8    5   25 1
   9    5   41 1
  10    6    7 1
  11    6   24 1
  12    6   42 1
  13    7    8 1
  14    7   43 1
  15    7   44 1
  16    8    9 am
  17    8   20 1
  18    9   10 2
  19    9   11 2
  20    9   12 1
  21   12   13 ar
  22   12   17 ar
  23   13   14 ar
  24   13   45 1
  25   14   15 ar
  26   14   46 1
  27   15   16 ar
  28   15   18 1
  29   16   17 ar
  30   16   47 1
  31   17   48 1
  32   18   19 1
  33   18   49 1
  34   18   50 1
  35   19   51 1
  36   20   21 1
  37   20   52 1
  38   20   53 1
  39   21   22 1
  40   21   23 1
  41   21   54 1
  42   22   55 1
  43   22   56 1
  44   22   57 1
  45   23   58 1
  46   23   59 1
  47   23   60 1
  48   24   61 1
  49   25   26 1
  50   25   62 1
  51   25   63 1
  52   26   27 ar
  53   26   31 ar
  54   27   28 ar
  55   27   64 1
  56   28   29 ar
  57   28   65 1
  58   29   30 ar
  59   29   66 1
  60   30   31 ar
  61   30   67 1
  62   31   68 1
  63   32   33 1
  64   32   36 1
  65   32   38 1
  66   32   69 1
  67   33   34 1
  68   33   39 1
  69   33   70 1
  70   34   35 1
  71   34   71 1
  72   34   72 1
  73   35   36 1
  74   35   73 1
  75   36   74 1
  76   36   75 1
  77   37   38 1
  78   37   39 1
  79   37   76 1
  80   37   77 1

#	End of record

