#	Name: ASD04660021
#	Creating user name:	WinNT
#	Creation time:	15. 06. 2019 20:52

#	Modifying user name:	WinNT
#	Modification time:	15. 06. 2019 20:52

#	Program:	/corina/corina34_cracker 3.40 0067  02.08.2006

@<TRIPOS>MOLECULE
ASD04660021
  45   48    0    0    0
SMALL
NO_CHARGES


@<TRIPOS>ATOM
   1 C1             4.3194     2.8179     3.2360 C.ar    
   2 C2             4.8430     1.5344     3.3839 C.ar    
   3 C3             4.6052     0.5214     2.4931 C.ar    
   4 C4             3.7962     0.7770     1.3732 C.ar    
   5 C5             3.2796     2.0663     1.2404 C.ar    
   6 C6             3.5172     3.1101     2.1465 C.ar    
   7 C7             3.4606    -0.1513     0.3732 C.ar    
   8 C8             2.6587     0.2596    -0.6564 C.ar    
   9 C9             2.1563     1.5562    -0.7641 C.ar    
  10 C10            2.4631     2.4984     0.1996 C.ar    
  11 N11            2.1731     3.8350     0.4428 N.am    
  12 C12            2.7762     4.2477     1.5889 C.2     
  13 O13            2.7130     5.3644     2.0683 O.2     
  14 C14            2.1065    -2.6337     1.9081 C.2     
  15 H15            1.4622    -2.3257     1.0980 H       
  16 C16            1.5170    -3.2038     3.1549 C.2     
  17 C17            2.3558    -3.7160     4.1575 C.ar    
  18 C18            3.3988    -4.6151     3.8264 C.ar    
  19 C19            2.1705    -3.3339     5.5086 C.ar    
  20 C20            2.9926    -3.8393     6.4719 C.ar    
  21 C21            4.0086    -4.7255     6.1332 C.ar    
  22 C22            4.2058    -5.1048     4.8104 C.ar    
  23 N23            4.8931    -5.2652     7.1901 N.pl3   
  24 O24            4.7157    -4.9054     8.4445 O.2     
  25 O25            5.8577    -6.1051     6.8761 O.2     
  26 S26            4.0596    -1.8069     0.4432 S.o2    
  27 O27            3.4949    -2.4853    -0.6704 O.2     
  28 O28            5.4594    -1.7179     0.6709 O.2     
  29 N29            3.4093    -2.5066     1.7960 N.am    
  30 O30            0.1898    -3.2267     3.3172 O.3     
  31 C31           -0.6156    -2.6801     2.2398 C.3     
  32 H32            4.5350     3.5796     3.9706 H       
  33 H33            5.4663     1.3290     4.2416 H       
  34 H34            5.0330    -0.4579     2.6489 H       
  35 H35            2.4024    -0.4556    -1.4240 H       
  36 H36            1.5279     1.8242    -1.6006 H       
  37 H37            1.6200     4.3943    -0.1248 H       
  38 H38            3.5539    -4.9118     2.7996 H       
  39 H39            1.3821    -2.6453     5.7745 H       
  40 H40            2.8539    -3.5495     7.5030 H       
  41 H41            4.9990    -5.7942     4.5616 H       
  42 H42            3.9903    -2.8226     2.5055 H       
  43 H43           -0.3571    -1.6321     2.0885 H       
  44 H44           -0.4230    -3.2378     1.3232 H       
  45 H45           -1.6714    -2.7602     2.4987 H       
@<TRIPOS>BOND
   1    1    2 ar
   2    1    6 ar
   3    1   32 1
   4    2    3 ar
   5    2   33 1
   6    3    4 ar
   7    3   34 1
   8    4    5 ar
   9    4    7 ar
  10    5    6 ar
  11    5   10 ar
  12    6   12 1
  13    7    8 ar
  14    7   26 1
  15    8    9 ar
  16    8   35 1
  17    9   10 ar
  18    9   36 1
  19   10   11 1
  20   11   12 am
  21   11   37 1
  22   12   13 2
  23   14   15 1
  24   14   16 2
  25   14   29 1
  26   16   17 1
  27   16   30 1
  28   17   18 ar
  29   17   19 ar
  30   18   22 ar
  31   18   38 1
  32   19   20 ar
  33   19   39 1
  34   20   21 ar
  35   20   40 1
  36   21   22 ar
  37   21   23 1
  38   22   41 1
  39   23   24 2
  40   23   25 2
  41   26   27 2
  42   26   28 2
  43   26   29 am
  44   29   42 1
  45   30   31 1
  46   31   43 1
  47   31   44 1
  48   31   45 1

#	End of record

