#	Name: ASD03330442
#	Creating user name:	WinNT
#	Creation time:	15. 06. 2019 20:37

#	Modifying user name:	WinNT
#	Modification time:	15. 06. 2019 20:37

#	Program:	/corina/corina34_cracker 3.40 0067  02.08.2006

@<TRIPOS>MOLECULE
ASD03330442
  48   50    0    0    0
SMALL
NO_CHARGES


@<TRIPOS>ATOM
   1 C1            -0.0179     1.4655     0.0101 C.3     
   2 N2             0.0021    -0.0041     0.0020 N.3     
   3 C3             0.4494    -0.5231    -1.3031 C.3     
   4 C4             1.7237     0.1898    -1.6760 C.2     
   5 N5             2.1518     1.3316    -1.0766 N.pl3   
   6 C6             1.4184     2.0045    -0.0007 C.3     
   7 C7             2.6414    -0.1380    -2.6195 C.2     
   8 N8             3.6168     0.7988    -2.5860 N.2     
   9 C9             3.3277     1.6846    -1.6592 C.2     
  10 C10            4.1449     2.8672    -1.3090 C.ar    
  11 C11            2.5861    -1.3041    -3.5187 C.2     
  12 O12            1.6514    -2.0795    -3.4521 O.2     
  13 C13            3.5160    -2.6708    -5.3088 C.3     
  14 N14            3.5711    -1.5114    -4.4149 N.am    
  15 C15           -1.3129    -0.5504     0.3632 C.3     
  16 C16            5.1558     3.2993    -2.1679 C.ar    
  17 C17            5.9145     4.4028    -1.8356 C.ar    
  18 C18            5.6748     5.0801    -0.6533 C.ar    
  19 C19            4.6742     4.6564     0.2029 C.ar    
  20 C20            3.9041     3.5583    -0.1212 C.ar    
  21 C21            4.7456    -2.6715    -6.2194 C.3     
  22 O22            4.6919    -3.8024    -7.0914 O.3     
  23 C23            3.4962    -3.9552    -4.4777 C.3     
  24 C24            2.2489    -2.5964    -6.1630 C.3     
  25 H25           -0.5467     1.8255    -0.8724 H       
  26 H26           -0.5297     1.8160     0.9063 H       
  27 H27            0.6347    -1.5947    -1.2296 H       
  28 H28           -0.3141    -0.3315    -2.0571 H       
  29 H29            1.4064     3.0795    -0.1803 H       
  30 H30            1.8965     1.7963     0.9564 H       
  31 H31            4.3165    -0.8930    -4.4680 H       
  32 H32           -2.0700    -0.1513    -0.3117 H       
  33 H33           -1.2897    -1.6371     0.2814 H       
  34 H34           -1.5545    -0.2682     1.3879 H       
  35 H35            5.3444     2.7710    -3.0908 H       
  36 H36            6.6974     4.7383    -2.4997 H       
  37 H37            6.2716     5.9431    -0.3975 H       
  38 H38            4.4921     5.1892     1.1245 H       
  39 H39            3.1230     3.2287     0.5478 H       
  40 H40            4.7598    -1.7565    -6.8115 H       
  41 H41            5.6483    -2.7245    -5.6108 H       
  42 H42            5.4418    -3.8669    -7.6984 H       
  43 H43            2.6202    -3.9546    -3.8290 H       
  44 H44            3.4552    -4.8178    -5.1428 H       
  45 H45            4.3989    -4.0082    -3.8691 H       
  46 H46            2.2630    -1.6813    -6.7551 H       
  47 H47            2.2079    -3.4589    -6.8281 H       
  48 H48            1.3729    -2.5958    -5.5143 H       
@<TRIPOS>BOND
   1    1    2 1
   2    1    6 1
   3    1   25 1
   4    1   26 1
   5    2    3 1
   6    2   15 1
   7    3    4 1
   8    3   27 1
   9    3   28 1
  10    4    5 1
  11    4    7 2
  12    5    6 1
  13    5    9 1
  14    6   29 1
  15    6   30 1
  16    7    8 1
  17    7   11 1
  18    8    9 2
  19    9   10 1
  20   10   16 ar
  21   10   20 ar
  22   11   12 2
  23   11   14 am
  24   13   14 1
  25   13   21 1
  26   13   23 1
  27   13   24 1
  28   14   31 1
  29   15   32 1
  30   15   33 1
  31   15   34 1
  32   16   17 ar
  33   16   35 1
  34   17   18 ar
  35   17   36 1
  36   18   19 ar
  37   18   37 1
  38   19   20 ar
  39   19   38 1
  40   20   39 1
  41   21   22 1
  42   21   40 1
  43   21   41 1
  44   22   42 1
  45   23   43 1
  46   23   44 1
  47   23   45 1
  48   24   46 1
  49   24   47 1
  50   24   48 1

#	End of record

