#	Name: ASD01911529
#	Creating user name:	WinNT
#	Creation time:	15. 06. 2019 19:57

#	Modifying user name:	WinNT
#	Modification time:	15. 06. 2019 19:57

#	Program:	/corina/corina34_cracker 3.40 0067  02.08.2006

@<TRIPOS>MOLECULE
ASD01911529
  40   41    0    0    0
SMALL
NO_CHARGES


@<TRIPOS>ATOM
   1 C1            -0.0187     1.5258     0.0104 C.3     
   2 C2             0.0021    -0.0041     0.0020 C.3     
   3 C3             0.7421    -0.5109     1.2415 C.3     
   4 C4             0.8719    -2.0337     1.1708 C.3     
   5 O5            -1.3386    -0.4987     0.0122 O.3     
   6 N6             1.5805    -2.5190     2.3577 N.pl3   
   7 C7             1.8190    -3.8781     2.5169 C.ar    
   8 C8             1.3834    -4.7798     1.5460 C.ar    
   9 N9             2.4661    -4.3163     3.5902 N.ar    
  10 N10            1.6085    -6.0694     1.6947 N.ar    
  11 C11            2.2538    -6.5127     2.7744 C.ar    
  12 C12            2.6941    -5.6074     3.7431 C.ar    
  13 C13            2.4991    -7.9140     2.9383 C.1     
  14 C14            2.7002    -9.0628     3.0726 C.1     
  15 C15            2.9455   -10.4641     3.2365 C.ar    
  16 C16            3.6215   -10.9311     4.3670 C.ar    
  17 C17            3.8537   -12.2821     4.5182 C.ar    
  18 C18            3.4192   -13.1745     3.5539 C.ar    
  19 C19            2.7492   -12.7195     2.4318 C.ar    
  20 C20            2.5050   -11.3718     2.2695 C.ar    
  21 C21            0.7182    -0.4975    -1.2568 C.3     
  22 H22            1.0039     1.9031     0.0027 H       
  23 H23           -0.5459     1.8868    -0.8726 H       
  24 H24           -0.5289     1.8773     0.9072 H       
  25 H25            1.7350    -0.0630     1.2804 H       
  26 H26            0.1838    -0.2350     2.1361 H       
  27 H27           -0.1210    -2.4817     1.1320 H       
  28 H28            1.4302    -2.3096     0.2763 H       
  29 H29           -1.8531    -0.2245     0.7836 H       
  30 H30            1.8831    -1.8913     3.0324 H       
  31 H31            0.8609    -4.4206     0.6718 H       
  32 H32            3.2206    -5.9635     4.6162 H       
  33 H33            3.9615   -10.2358     5.1202 H       
  34 H34            4.3762   -12.6445     5.3911 H       
  35 H35            3.6042   -14.2314     3.6775 H       
  36 H36            2.4130   -13.4218     1.6834 H       
  37 H37            1.9781   -11.0185     1.3955 H       
  38 H38            1.7408    -0.1202    -1.2645 H       
  39 H39            0.7330    -1.5874    -1.2628 H       
  40 H40            0.1910    -0.1364    -2.1398 H       
@<TRIPOS>BOND
   1    1    2 1
   2    1   22 1
   3    1   23 1
   4    1   24 1
   5    2    3 1
   6    2    5 1
   7    2   21 1
   8    3    4 1
   9    3   25 1
  10    3   26 1
  11    4    6 1
  12    4   27 1
  13    4   28 1
  14    5   29 1
  15    6    7 1
  16    6   30 1
  17    7    8 ar
  18    7    9 ar
  19    8   10 ar
  20    8   31 1
  21    9   12 ar
  22   10   11 ar
  23   11   12 ar
  24   11   13 1
  25   12   32 1
  26   13   14 3
  27   14   15 1
  28   15   16 ar
  29   15   20 ar
  30   16   17 ar
  31   16   33 1
  32   17   18 ar
  33   17   34 1
  34   18   19 ar
  35   18   35 1
  36   19   20 ar
  37   19   36 1
  38   20   37 1
  39   21   38 1
  40   21   39 1
  41   21   40 1

#	End of record

