#	Name: ASD03330028
#	Creating user name:	WinNT
#	Creation time:	15. 06. 2019 20:36

#	Modifying user name:	WinNT
#	Modification time:	15. 06. 2019 20:36

#	Program:	/corina/corina34_cracker 3.40 0067  02.08.2006

@<TRIPOS>MOLECULE
ASD03330028
  33   34    0    0    0
SMALL
NO_CHARGES


@<TRIPOS>ATOM
   1 N1            -0.0258     1.3572     0.0050 N.pl3   
   2 C2            -0.0053    -0.0067     0.0060 C.2     
   3 C3             1.3134    -0.4427    -0.0107 C.2     
   4 C4             2.1459     0.7693    -0.0227 C.ar    
   5 C5             3.5230     0.9941    -0.0412 C.ar    
   6 C6             4.0022     2.2744    -0.0491 C.ar    
   7 C7             3.1270     3.3542    -0.0388 C.ar    
   8 C8             1.7654     3.1544    -0.0201 C.ar    
   9 C9             1.2545     1.8575    -0.0122 C.ar    
  10 C10           -1.1948    -0.8800     0.0228 C.2     
  11 O11           -1.0656    -2.0841    -0.0728 O.2     
  12 O12           -2.4243    -0.3417     0.1442 O.3     
  13 C13            1.7815    -1.8327    -0.0150 C.2     
  14 O14            1.8773    -2.4372    -1.0624 O.2     
  15 C15            2.1433    -2.5100     1.2817 C.3     
  16 C16            2.4727    -3.9800     1.0147 C.3     
  17 Cl17           5.7154     2.5536    -0.0716 Cl      
  18 C18           -3.5484    -1.2608     0.1533 C.3     
  19 C19           -4.8512    -0.4717     0.2977 C.3     
  20 H20           -0.8309     1.8982     0.0112 H       
  21 H21            4.2081     0.1592    -0.0490 H       
  22 H22            3.5195     4.3603    -0.0452 H       
  23 H23            1.0943     4.0006    -0.0115 H       
  24 H24            3.0113    -2.0168     1.7193 H       
  25 H25            1.3024    -2.4456     1.9722 H       
  26 H26            3.3136    -4.0444     0.3242 H       
  27 H27            2.7344    -4.4699     1.9526 H       
  28 H28            1.6047    -4.4732     0.5771 H       
  29 H29           -3.5657    -1.8228    -0.7805 H       
  30 H30           -3.4468    -1.9508     0.9909 H       
  31 H31           -4.8340     0.0904     1.2315 H       
  32 H32           -4.9529     0.2184    -0.5399 H       
  33 H33           -5.6950    -1.1616     0.3045 H       
@<TRIPOS>BOND
   1    1    2 1
   2    1    9 1
   3    1   20 1
   4    2    3 2
   5    2   10 1
   6    3    4 1
   7    3   13 1
   8    4    5 ar
   9    4    9 ar
  10    5    6 ar
  11    5   21 1
  12    6    7 ar
  13    6   17 1
  14    7    8 ar
  15    7   22 1
  16    8    9 ar
  17    8   23 1
  18   10   11 2
  19   10   12 1
  20   12   18 1
  21   13   14 2
  22   13   15 1
  23   15   16 1
  24   15   24 1
  25   15   25 1
  26   16   26 1
  27   16   27 1
  28   16   28 1
  29   18   19 1
  30   18   29 1
  31   18   30 1
  32   19   31 1
  33   19   32 1
  34   19   33 1

#	End of record

