#	Name: ASD01028843
#	Creating user name:	WinNT
#	Creation time:	15. 06. 2019 18:58

#	Modifying user name:	WinNT
#	Modification time:	15. 06. 2019 18:58

#	Program:	/corina/corina34_cracker 3.40 0067  02.08.2006

@<TRIPOS>MOLECULE
ASD01028843
  41   45    0    0    0
SMALL
NO_CHARGES


@<TRIPOS>ATOM
   1 C1            -0.0157     1.3066     0.0092 C.ar    
   2 N2             0.0021    -0.0041     0.0020 N.ar    
   3 C3             1.1590     2.0560     0.0020 C.ar    
   4 C4             2.3700     1.4248    -0.0129 C.ar    
   5 C5             2.3853     0.0171    -0.0205 C.ar    
   6 C6             1.1534    -0.6834    -0.0126 C.ar    
   7 C7             3.5916    -0.7008    -0.0353 C.ar    
   8 C8             3.5644    -2.0622    -0.0419 C.ar    
   9 C9             2.3546    -2.7530    -0.0346 C.ar    
  10 C10            1.1666    -2.0889    -0.0202 C.ar    
  11 C11            4.8600    -2.8318    -0.0578 C.3     
  12 C12            5.3051    -3.0955     1.3576 C.2     
  13 N13            6.4292    -3.7630     1.7371 N.pl3   
  14 C14            6.4235    -3.7583     3.1104 C.2     
  15 N15            5.3334    -3.1103     3.4866 N.2     
  16 N16            4.6849    -2.7199     2.4463 N.2     
  17 C17            7.4398    -4.3640     1.0496 C.2     
  18 C18            8.4624    -4.9710     1.7164 C.2     
  19 C19            8.4799    -4.9800     3.1334 C.2     
  20 C20            7.4728    -4.3806     3.8210 C.2     
  21 C21            9.5538    -5.6206     0.9605 C.2     
  22 F22            4.6715    -4.0487    -0.7217 F       
  23 F23            5.8382    -2.0845    -0.7227 F       
  24 O24            9.4526    -6.6949     0.1575 O.3     
  25 N25           10.5223    -6.9907    -0.3219 N.2     
  26 C26           11.4707    -6.1887     0.0722 C.2     
  27 C27           10.8703    -5.2468     0.9318 C.2     
  28 F28            7.4753    -4.3804     5.1720 F       
  29 C29           12.9246    -6.2526    -0.3191 C.3     
  30 H30           -0.9662     1.8194     0.0165 H       
  31 H31            1.1119     3.1349     0.0079 H       
  32 H32            3.2904     1.9898    -0.0190 H       
  33 H33            4.5357    -0.1763    -0.0418 H       
  34 H34            2.3595    -3.8330    -0.0408 H       
  35 H35            0.2377    -2.6397    -0.0140 H       
  36 H36            7.4307    -4.3601    -0.0303 H       
  37 H37            9.2889    -5.4605     3.6636 H       
  38 H38           11.3405    -4.4249     1.4512 H       
  39 H39           13.0868    -5.6514    -1.2137 H       
  40 H40           13.5373    -5.8652     0.4950 H       
  41 H41           13.2013    -7.2873    -0.5215 H       
@<TRIPOS>BOND
   1    1    2 ar
   2    1    3 ar
   3    1   30 1
   4    2    6 ar
   5    3    4 ar
   6    3   31 1
   7    4    5 ar
   8    4   32 1
   9    5    6 ar
  10    5    7 ar
  11    6   10 ar
  12    7    8 ar
  13    7   33 1
  14    8    9 ar
  15    8   11 1
  16    9   10 ar
  17    9   34 1
  18   10   35 1
  19   11   12 1
  20   11   22 1
  21   11   23 1
  22   12   13 1
  23   12   16 2
  24   13   14 1
  25   13   17 1
  26   14   15 2
  27   14   20 1
  28   15   16 1
  29   17   18 2
  30   17   36 1
  31   18   19 1
  32   18   21 1
  33   19   20 2
  34   19   37 1
  35   20   28 1
  36   21   24 1
  37   21   27 2
  38   24   25 1
  39   25   26 2
  40   26   27 1
  41   26   29 1
  42   27   38 1
  43   29   39 1
  44   29   40 1
  45   29   41 1

#	End of record

