#	Name: ASD03240827
#	Creating user name:	WinNT
#	Creation time:	15. 06. 2019 20:35

#	Modifying user name:	WinNT
#	Modification time:	15. 06. 2019 20:35

#	Program:	/corina/corina34_cracker 3.40 0067  02.08.2006

@<TRIPOS>MOLECULE
ASD03240827
  46   50    0    0    0
SMALL
NO_CHARGES


@<TRIPOS>ATOM
   1 C1            -0.0173     1.4248     0.0099 C.3     
   2 O2             0.0021    -0.0041     0.0020 O.3     
   3 C3             1.3965     1.9464    -0.0008 C.ar    
   4 C4             2.0313     2.1913    -1.2054 C.ar    
   5 C5             3.3255     2.6693    -1.2218 C.ar    
   6 C6             3.9939     2.9057    -0.0205 C.ar    
   7 C7             3.3484     2.6568     1.1908 C.ar    
   8 C8             2.0522     2.1838     1.1940 C.ar    
   9 N9             8.3244     3.0442    -2.0353 N.pl3   
  10 C10            9.6127     3.5055    -2.0629 C.2     
  11 N11           10.0833     4.3613    -1.1384 N.2     
  12 C12            9.3376     4.8031    -0.1587 C.2     
  13 C13            7.9502     4.3541    -0.0641 C.ar    
  14 C14            7.1040     4.7906     0.9609 C.ar    
  15 C15            5.7977     4.3129     0.9749 C.ar    
  16 C16            5.3832     3.4183    -0.0310 C.ar    
  17 N17            6.2134     3.0268    -0.9858 N.ar    
  18 C18            7.4623     3.4565    -1.0374 C.ar    
  19 C19           10.2228     2.9222    -3.1651 C.2     
  20 C20            9.2828     2.1116    -3.7890 C.2     
  21 N21            8.1564     2.1755    -3.1203 N.2     
  22 C22            4.8541     4.7389     2.0361 C.ar    
  23 C23            5.2295     4.6662     3.3766 C.ar    
  24 C24            4.3471     5.0646     4.3601 C.ar    
  25 C25            3.0922     5.5353     4.0178 C.ar    
  26 C26            2.7140     5.6092     2.6893 C.ar    
  27 C27            3.5901     5.2191     1.6969 C.ar    
  28 C28            9.5204     1.2885    -5.0288 C.3     
  29 H29           -0.5445     1.7859    -0.8732 H       
  30 H30           -0.5275     1.7763     0.9067 H       
  31 H31           -0.8759    -0.4094     0.0082 H       
  32 H32            1.5129     2.0076    -2.1349 H       
  33 H33            3.8202     2.8598    -2.1628 H       
  34 H34            3.8608     2.8375     2.1242 H       
  35 H35            1.5500     1.9946     2.1312 H       
  36 H36            9.7418     5.4899     0.5703 H       
  37 H37            7.4540     5.4773     1.7175 H       
  38 H38           11.2446     3.0720    -3.4810 H       
  39 H39            6.2089     4.2985     3.6450 H       
  40 H40            4.6367     5.0083     5.3990 H       
  41 H41            2.4049     5.8459     4.7908 H       
  42 H42            1.7327     5.9769     2.4279 H       
  43 H43            3.2955     5.2815     0.6598 H       
  44 H44            9.8741     0.2974    -4.7447 H       
  45 H45            8.5889     1.1955    -5.5872 H       
  46 H46           10.2699     1.7772    -5.6512 H       
@<TRIPOS>BOND
   1    1    2 1
   2    1    3 1
   3    1   29 1
   4    1   30 1
   5    2   31 1
   6    3    4 ar
   7    3    8 ar
   8    4    5 ar
   9    4   32 1
  10    5    6 ar
  11    5   33 1
  12    6    7 ar
  13    6   16 1
  14    7    8 ar
  15    7   34 1
  16    8   35 1
  17    9   10 1
  18    9   18 1
  19    9   21 1
  20   10   11 1
  21   10   19 2
  22   11   12 2
  23   12   13 1
  24   12   36 1
  25   13   14 ar
  26   13   18 ar
  27   14   15 ar
  28   14   37 1
  29   15   16 ar
  30   15   22 1
  31   16   17 ar
  32   17   18 ar
  33   19   20 1
  34   19   38 1
  35   20   21 2
  36   20   28 1
  37   22   23 ar
  38   22   27 ar
  39   23   24 ar
  40   23   39 1
  41   24   25 ar
  42   24   40 1
  43   25   26 ar
  44   25   41 1
  45   26   27 ar
  46   26   42 1
  47   27   43 1
  48   28   44 1
  49   28   45 1
  50   28   46 1

#	End of record

