#	Name: ASD03330064
#	Creating user name:	WinNT
#	Creation time:	15. 06. 2019 20:36

#	Modifying user name:	WinNT
#	Modification time:	15. 06. 2019 20:36

#	Program:	/corina/corina34_cracker 3.40 0067  02.08.2006

@<TRIPOS>MOLECULE
ASD03330064
  74   78    0    0    0
SMALL
NO_CHARGES


@<TRIPOS>ATOM
   1 C1             0.1317     1.4732     0.0129 C.2     
   2 C2             0.0254     0.2596     0.6237 C.2     
   3 C3             1.3311     2.1213     0.2234 C.2     
   4 C4             2.2173     1.4288     1.0167 C.2     
   5 S5             1.4998    -0.0981     1.5110 S.3     
   6 C6             3.5647     1.8963     1.3941 C.ar    
   7 C7             3.9687     1.8679     2.7325 C.ar    
   8 C8             4.4447     2.3640     0.4153 C.ar    
   9 C9             5.7031     2.7992     0.7746 C.ar    
  10 C10            6.0957     2.7736     2.1025 C.ar    
  11 C11            5.2309     2.3065     3.0780 C.ar    
  12 Cl12           7.6819     3.3230     2.5452 Cl      
  13 C13            1.6394     3.4505    -0.3560 C.ar    
  14 C14            1.5486     3.6501    -1.7333 C.ar    
  15 C15            2.0152     4.5049     0.4760 C.ar    
  16 C16            2.3015     5.7400    -0.0649 C.ar    
  17 C17            2.2159     5.9352    -1.4390 C.ar    
  18 C18            1.8359     4.8869    -2.2699 C.ar    
  19 C19           -1.1458    -0.6180     0.5513 C.2     
  20 O20           -2.2651    -0.1475     0.6378 O.2     
  21 S21            2.5819     7.5153    -2.1276 S.3     
  22 N22           -0.9838    -1.9461     0.3891 N.am    
  23 C23           -2.1471    -2.8265     0.2152 C.3     
  24 C24            0.3599    -2.5403     0.3766 C.3     
  25 C25            0.5201    -3.3706    -0.9008 C.3     
  26 C26           -0.6185    -4.3894    -0.9882 C.3     
  27 C27           -1.9537    -3.6530    -1.0601 C.3     
  28 C28           -0.4453    -5.2309    -2.2263 C.ar    
  29 C29           -1.3758    -5.1598    -3.2461 C.ar    
  30 C30           -1.2169    -5.9318    -4.3818 C.ar    
  31 C31           -0.1272    -6.7744    -4.4979 C.ar    
  32 C32            0.8038    -6.8448    -3.4785 C.ar    
  33 C33            0.6472    -6.0697    -2.3447 C.ar    
  34 Cl34           2.8853     1.2831     3.9564 Cl      
  35 C35           -0.5926    -5.2770     0.2294 C.2     
  36 O36            0.3250    -5.1974     1.0184 O.2     
  37 N37           -1.5892    -6.1593     0.4415 N.am    
  38 C38            2.3295     7.2543    -3.9049 C.3     
  39 C39            2.6124     8.5563    -4.6568 C.3     
  40 C40            2.3996     8.3362    -6.1559 C.3     
  41 C41            2.6825     9.6383    -6.9078 C.3     
  42 O42            2.4837     9.4326    -8.3079 O.3     
  43 H43           -0.6589     1.8923    -0.5918 H       
  44 H44            4.1405     2.3843    -0.6207 H       
  45 H45            6.3843     3.1606     0.0184 H       
  46 H46            5.5431     2.2895     4.1118 H       
  47 H47            1.2539     2.8361    -2.3790 H       
  48 H48            2.0814     4.3538     1.5434 H       
  49 H49            2.5922     6.5569     0.5791 H       
  50 H50            1.7700     5.0407    -3.3369 H       
  51 H51           -2.2324    -3.4932     1.0733 H       
  52 H52           -3.0512    -2.2241     0.1266 H       
  53 H53            1.1095    -1.7491     0.3945 H       
  54 H54            0.4833    -3.1831     1.2482 H       
  55 H55            0.4869    -2.7125    -1.7690 H       
  56 H56            1.4758    -3.8942    -0.8769 H       
  57 H57           -2.7642    -4.3768    -1.1460 H       
  58 H58           -1.9597    -2.9946    -1.9287 H       
  59 H59           -2.2271    -4.5015    -3.1554 H       
  60 H60           -1.9443    -5.8768    -5.1783 H       
  61 H61           -0.0035    -7.3780    -5.3849 H       
  62 H62            1.6549    -7.5034    -3.5691 H       
  63 H63            1.3745    -6.1246    -1.5483 H       
  64 H64           -2.2844    -6.2751    -0.2249 H       
  65 H65           -1.6112    -6.6784     1.2606 H       
  66 H66            3.0068     6.4765    -4.2577 H       
  67 H67            1.2991     6.9476    -4.0844 H       
  68 H68            1.9352     9.3341    -4.3041 H       
  69 H69            3.6429     8.8630    -4.4774 H       
  70 H70            3.0768     7.5584    -6.5086 H       
  71 H71            1.3691     8.0295    -6.3353 H       
  72 H72            2.0052    10.4161    -6.5550 H       
  73 H73            3.7129     9.9450    -6.7283 H       
  74 H74            2.6456    10.2184    -8.8477 H       
@<TRIPOS>BOND
   1    1    2 2
   2    1    3 1
   3    1   43 1
   4    2   19 1
   5    2    5 1
   6    3    4 2
   7    3   13 1
   8    4    5 1
   9    4    6 1
  10    6    7 ar
  11    6    8 ar
  12    7   34 1
  13    7   11 ar
  14    8    9 ar
  15    8   44 1
  16    9   10 ar
  17    9   45 1
  18   10   11 ar
  19   10   12 1
  20   11   46 1
  21   13   14 ar
  22   13   15 ar
  23   14   18 ar
  24   14   47 1
  25   15   16 ar
  26   15   48 1
  27   16   17 ar
  28   16   49 1
  29   17   18 ar
  30   17   21 1
  31   18   50 1
  32   19   20 2
  33   19   22 am
  34   21   38 1
  35   22   23 1
  36   22   24 1
  37   23   27 1
  38   23   51 1
  39   23   52 1
  40   24   25 1
  41   24   53 1
  42   24   54 1
  43   25   26 1
  44   25   55 1
  45   25   56 1
  46   26   27 1
  47   26   28 1
  48   26   35 1
  49   27   57 1
  50   27   58 1
  51   28   29 ar
  52   28   33 ar
  53   29   30 ar
  54   29   59 1
  55   30   31 ar
  56   30   60 1
  57   31   32 ar
  58   31   61 1
  59   32   33 ar
  60   32   62 1
  61   33   63 1
  62   35   36 2
  63   35   37 am
  64   37   64 1
  65   37   65 1
  66   38   39 1
  67   38   66 1
  68   38   67 1
  69   39   40 1
  70   39   68 1
  71   39   69 1
  72   40   41 1
  73   40   70 1
  74   40   71 1
  75   41   42 1
  76   41   72 1
  77   41   73 1
  78   42   74 1

#	End of record

