#	Name: ASD01870285
#	Creating user name:	WinNT
#	Creation time:	15. 06. 2019 19:38

#	Modifying user name:	WinNT
#	Modification time:	15. 06. 2019 19:38

#	Program:	/corina/corina34_cracker 3.40 0067  02.08.2006

@<TRIPOS>MOLECULE
ASD01870285
  58   62    0    0    0
SMALL
NO_CHARGES


@<TRIPOS>ATOM
   1 N1            -0.0154     1.2808     0.0091 N.2     
   2 C2             0.0021    -0.0041     0.0020 C.2     
   3 C3             1.2912    -0.7787    -0.0078 C.3     
   4 C4             2.3452    -0.0235    -0.8211 C.3     
   5 C5             2.3412     1.4245    -0.4010 C.ar    
   6 C6             3.5089     2.1592    -0.4131 C.ar    
   7 C7             3.5041     3.4848    -0.0266 C.ar    
   8 C8             2.3128     4.0918     0.3800 C.ar    
   9 C9             1.1324     3.3493     0.3914 C.ar    
  10 C10            1.1411     2.0167     0.0020 C.ar    
  11 N11            0.6941     5.5713     1.1230 N.am    
  12 C12            2.0030     5.4602     0.8383 C.2     
  13 C13            0.0464     4.2788     0.8717 C.3     
  14 O14            2.8154     6.3583     0.9432 O.2     
  15 C15            4.7973     1.5111    -0.8503 C.3     
  16 N16            5.3543     3.1160    -4.2345 N.am    
  17 C17            5.0227     3.0371    -2.8174 C.3     
  18 C18            4.9101     1.5778    -2.3746 C.3     
  19 C19            6.1676     0.8279    -2.8307 C.3     
  20 C20            6.1586     0.7534    -4.3596 C.3     
  21 C21            5.8831     2.1126    -4.9358 C.2     
  22 O22            6.1553     2.3078    -6.1014 O.2     
  23 C23            0.0248     6.7824     1.6042 C.3     
  24 C24            0.1918     7.9010     0.5737 C.3     
  25 C25           -0.5072     9.1658     1.0762 C.3     
  26 C26            0.1157     9.5992     2.4047 C.3     
  27 C27           -0.0513     8.4807     3.4352 C.3     
  28 C28            0.6477     7.2158     2.9327 C.3     
  29 O29           -0.3900     7.4962    -0.6672 O.3     
  30 H30           -0.9343    -0.5422     0.0035 H       
  31 H31            1.6454    -0.9054     1.0153 H       
  32 H32            1.1218    -1.7581    -0.4551 H       
  33 H33            3.3285    -0.4551    -0.6343 H       
  34 H34            2.1083    -0.0963    -1.8825 H       
  35 H35            4.4223     4.0533    -0.0382 H       
  36 H36           -0.7204     4.3869     0.1047 H       
  37 H37           -0.3948     3.8956     1.7918 H       
  38 H38            5.6394     2.0368    -0.4002 H       
  39 H39            4.8066     0.4691    -0.5305 H       
  40 H40            5.1759     3.9496    -4.6974 H       
  41 H41            5.8019     3.5312    -2.2371 H       
  42 H42            4.0723     3.5409    -2.6411 H       
  43 H43            4.0275     1.1255    -2.8268 H       
  44 H44            7.0559     1.3627    -2.4946 H       
  45 H45            6.1655    -0.1794    -2.4142 H       
  46 H46            7.1286     0.4012    -4.7106 H       
  47 H47            5.3837     0.0588    -4.6837 H       
  48 H48           -1.0359     6.5779     1.7498 H       
  49 H49            1.2525     8.1055     0.4281 H       
  50 H50           -0.3883     9.9627     0.3420 H       
  51 H51           -1.5679     8.9613     1.2218 H       
  52 H52            1.1764     9.8037     2.2591 H       
  53 H53           -0.3823    10.5003     2.7627 H       
  54 H54            0.3925     8.7894     4.3817 H       
  55 H55           -1.1120     8.2761     3.5808 H       
  56 H56            0.5287     6.4189     3.6668 H       
  57 H57            1.7084     7.4203     2.7871 H       
  58 H58           -0.3207     8.1583    -1.3686 H       
@<TRIPOS>BOND
   1    1    2 2
   2    1   10 1
   3    2    3 1
   4    2   30 1
   5    3    4 1
   6    3   31 1
   7    3   32 1
   8    4    5 1
   9    4   33 1
  10    4   34 1
  11    5    6 ar
  12    5   10 ar
  13    6    7 ar
  14    6   15 1
  15    7    8 ar
  16    7   35 1
  17    8    9 ar
  18    8   12 1
  19    9   10 ar
  20    9   13 1
  21   11   12 am
  22   11   13 1
  23   11   23 1
  24   12   14 2
  25   13   36 1
  26   13   37 1
  27   15   18 1
  28   15   38 1
  29   15   39 1
  30   16   17 1
  31   16   21 am
  32   16   40 1
  33   17   18 1
  34   17   41 1
  35   17   42 1
  36   18   19 1
  37   18   43 1
  38   19   20 1
  39   19   44 1
  40   19   45 1
  41   20   21 1
  42   20   46 1
  43   20   47 1
  44   21   22 2
  45   23   24 1
  46   23   28 1
  47   23   48 1
  48   24   25 1
  49   24   29 1
  50   24   49 1
  51   25   26 1
  52   25   50 1
  53   25   51 1
  54   26   27 1
  55   26   52 1
  56   26   53 1
  57   27   28 1
  58   27   54 1
  59   27   55 1
  60   28   56 1
  61   28   57 1
  62   29   58 1

#	End of record

