#	Name: ASD01150552
#	Creating user name:	WinNT
#	Creation time:	15. 06. 2019 19:04

#	Modifying user name:	WinNT
#	Modification time:	15. 06. 2019 19:04

#	Program:	/corina/corina34_cracker 3.40 0067  02.08.2006

@<TRIPOS>MOLECULE
ASD01150552
  54   57    0    0    0
SMALL
NO_CHARGES


@<TRIPOS>ATOM
   1 C1             0.4933     1.3920    -0.9463 C.ar    
   2 C2             0.4638     0.0110    -0.9223 C.ar    
   3 C3             1.9479     0.0101     0.9678 C.ar    
   4 C4             1.9790     1.3965     0.9447 C.ar    
   5 C5             1.2509     2.0887    -0.0130 C.ar    
   6 N6             1.2802     3.4880    -0.0388 N.am    
   7 C7             0.1264     4.1736    -0.1213 C.2     
   8 N8             0.1178     5.5194    -0.1484 N.am    
   9 C9             1.2790     6.2039    -0.0925 C.2     
  10 C10            2.5444     5.4600    -0.0021 C.2     
  11 N11            2.5099     4.1537     0.0273 N.2     
  12 O12            1.2794     7.4207    -0.1168 O.2     
  13 C13           -1.1538     6.2413    -0.2391 C.3     
  14 O14           -0.9268     3.5677    -0.1728 O.2     
  15 C15           -1.6751     6.5169     1.1477 C.ar    
  16 O16            3.7302     6.1203     0.0557 O.3     
  17 C17            4.9131     5.3232     0.1422 C.3     
  18 C18            1.1882    -0.6824     0.0308 C.ar    
  19 N19            2.6816    -0.6917     1.9323 N.am    
  20 C20            2.9447    -0.1220     3.1251 C.2     
  21 C21            3.6402    -0.9146     4.2017 C.3     
  22 O22            2.6216     1.0286     3.3321 O.2     
  23 C23           -1.3246     7.6845     1.8000 C.ar    
  24 C24           -1.7974     7.9399     3.0706 C.ar    
  25 C25           -2.6316     7.0219     3.7057 C.ar    
  26 C26           -2.9827     5.8537     3.0391 C.ar    
  27 C27           -2.5098     5.6046     1.7682 C.ar    
  28 F28            1.1574    -2.0329     0.0517 F       
  29 N29           -3.2111     7.0645     4.9799 N.3     
  30 C30           -4.3322     6.0999     5.0007 C.3     
  31 C31           -3.9001     5.0566     3.9449 C.3     
  32 C32           -3.6769     8.4201     5.3012 C.3     
  33 H33           -0.0696     1.9305    -1.6943 H       
  34 H34           -0.1261    -0.5283    -1.6487 H       
  35 H35            2.5683     1.9365     1.6710 H       
  36 H36           -0.9994     7.1845    -0.7633 H       
  37 H37           -1.8770     5.6361    -0.7856 H       
  38 H38            4.9802     4.6767    -0.7328 H       
  39 H39            5.7872     5.9732     0.1816 H       
  40 H40            4.8740     4.7117     1.0436 H       
  41 H41            3.0005    -1.5878     1.7420 H       
  42 H42            4.6177    -1.2361     3.8421 H       
  43 H43            3.7657    -0.2921     5.0876 H       
  44 H44            3.0404    -1.7890     4.4541 H       
  45 H45           -0.6778     8.3993     1.3130 H       
  46 H46           -1.5199     8.8539     3.5747 H       
  47 H47           -2.7843     4.6921     1.2598 H       
  48 H48           -4.4272     5.6387     5.9838 H       
  49 H49           -5.2640     6.5836     4.7077 H       
  50 H50           -4.7634     4.6873     3.3914 H       
  51 H51           -3.3601     4.2339     4.4136 H       
  52 H52           -4.4210     8.7319     4.5683 H       
  53 H53           -4.1226     8.4249     6.2960 H       
  54 H54           -2.8329     9.1095     5.2779 H       
@<TRIPOS>BOND
   1    1    2 ar
   2    1    5 ar
   3    1   33 1
   4    2   18 ar
   5    2   34 1
   6    3    4 ar
   7    3   19 1
   8    3   18 ar
   9    4    5 ar
  10    4   35 1
  11    5    6 1
  12    6    7 am
  13    6   11 1
  14    7    8 am
  15    7   14 2
  16    8    9 am
  17    8   13 1
  18    9   10 1
  19    9   12 2
  20   10   11 2
  21   10   16 1
  22   13   15 1
  23   13   36 1
  24   13   37 1
  25   15   23 ar
  26   15   27 ar
  27   16   17 1
  28   17   38 1
  29   17   39 1
  30   17   40 1
  31   18   28 1
  32   19   20 am
  33   19   41 1
  34   20   21 1
  35   20   22 2
  36   21   42 1
  37   21   43 1
  38   21   44 1
  39   23   24 ar
  40   23   45 1
  41   24   25 ar
  42   24   46 1
  43   25   26 ar
  44   25   29 1
  45   26   27 ar
  46   26   31 1
  47   27   47 1
  48   29   30 1
  49   29   32 1
  50   30   31 1
  51   30   48 1
  52   30   49 1
  53   31   50 1
  54   31   51 1
  55   32   52 1
  56   32   53 1
  57   32   54 1

#	End of record

