#	Name: ASD01911178
#	Creating user name:	WinNT
#	Creation time:	15. 06. 2019 19:57

#	Modifying user name:	WinNT
#	Modification time:	15. 06. 2019 19:57

#	Program:	/corina/corina34_cracker 3.40 0067  02.08.2006

@<TRIPOS>MOLECULE
ASD01911178
  43   46    0    0    0
SMALL
NO_CHARGES


@<TRIPOS>ATOM
   1 C1             0.0265     1.3090     0.0834 C.ar    
   2 N2             0.0260    -0.0051     0.0351 N.ar    
   3 C3             0.9956    -0.6802    -0.5702 C.ar    
   4 C4             2.0535    -0.0081    -1.1780 C.ar    
   5 C5             2.0800     1.3775    -1.1427 C.ar    
   6 C6             1.0474     2.0423    -0.5005 C.ar    
   7 C7             0.9525    -2.1606    -0.5991 C.2     
   8 N8            -0.0682    -2.8166    -0.0124 N.am    
   9 C9            -0.1520    -4.2094    -0.1091 C.ar    
  10 C10           -1.3820    -4.8424     0.0126 C.ar    
  11 C11           -1.4618    -6.2180    -0.0838 C.ar    
  12 C12           -0.3179    -6.9650    -0.3014 C.ar    
  13 C13            0.9093    -6.3369    -0.4226 C.ar    
  14 C14            0.9942    -4.9616    -0.3328 C.ar    
  15 C15           -2.6284    -4.0294     0.2502 C.3     
  16 C16           -3.1795    -3.5375    -1.0897 C.3     
  17 C17           -4.4947    -2.8247    -0.8825 C.2     
  18 C18           -4.3216    -1.4399    -1.3496 C.ar    
  19 C19           -3.0077    -1.2554    -1.8232 C.ar    
  20 C20           -2.2485    -2.5118    -1.6915 C.2     
  21 C21           -5.2213    -0.3679    -1.3817 C.ar    
  22 C22           -4.8174     0.8614    -1.8766 C.ar    
  23 C23           -3.5275     1.0387    -2.3409 C.ar    
  24 C24           -2.6239    -0.0073    -2.3172 C.ar    
  25 O25           -1.0913    -2.6888    -2.0068 O.2     
  26 O26           -5.5065    -3.3049    -0.4177 O.2     
  27 O27            1.8376    -2.7835    -1.1519 O.2     
  28 Br28          -0.4313    -8.8480    -0.4327 Br      
  29 F29           -6.4840    -0.5323    -0.9304 F       
  30 H30           -0.7820     1.8240     0.5810 H       
  31 H31            2.8420    -0.5586    -1.6695 H       
  32 H32            2.8872     1.9263    -1.6048 H       
  33 H33            1.0382     3.1213    -0.4556 H       
  34 H34           -0.7447    -2.3228     0.4769 H       
  35 H35           -2.4181    -6.7108     0.0112 H       
  36 H36            1.8007    -6.9226    -0.5917 H       
  37 H37            1.9521    -4.4719    -0.4279 H       
  38 H38           -3.3767    -4.6479     0.7457 H       
  39 H39           -2.3891    -3.1733     0.8809 H       
  40 H40           -3.3097    -4.3764    -1.7734 H       
  41 H41           -5.5145     1.6860    -1.9000 H       
  42 H42           -3.2236     2.0012    -2.7252 H       
  43 H43           -1.6184     0.1414    -2.6823 H       
@<TRIPOS>BOND
   1    1    2 ar
   2    1    6 ar
   3    1   30 1
   4    2    3 ar
   5    3    4 ar
   6    3    7 1
   7    4    5 ar
   8    4   31 1
   9    5    6 ar
  10    5   32 1
  11    6   33 1
  12    7    8 am
  13    7   27 2
  14    8    9 1
  15    8   34 1
  16    9   10 ar
  17    9   14 ar
  18   10   11 ar
  19   10   15 1
  20   11   12 ar
  21   11   35 1
  22   12   13 ar
  23   12   28 1
  24   13   14 ar
  25   13   36 1
  26   14   37 1
  27   15   16 1
  28   15   38 1
  29   15   39 1
  30   16   17 1
  31   16   20 1
  32   16   40 1
  33   17   18 1
  34   17   26 2
  35   18   19 ar
  36   18   21 ar
  37   19   20 1
  38   19   24 ar
  39   20   25 2
  40   21   22 ar
  41   21   29 1
  42   22   23 ar
  43   22   41 1
  44   23   24 ar
  45   23   42 1
  46   24   43 1

#	End of record

