#	Name: ASD02250005
#	Creating user name:	WinNT
#	Creation time:	15. 06. 2019 20:20

#	Modifying user name:	WinNT
#	Modification time:	15. 06. 2019 20:20

#	Program:	/corina/corina34_cracker 3.40 0067  02.08.2006

@<TRIPOS>MOLECULE
ASD02250005
  78   81    0    0    0
SMALL
NO_CHARGES


@<TRIPOS>ATOM
   1 C1             0.6415    -0.2230     0.9179 C.3     
   2 C2             1.0234    -1.7029     0.9078 C.3     
   3 C3             2.0327    -1.9913     2.0207 C.3     
   4 C4             3.2749    -1.1217     1.8184 C.3     
   5 C5             2.8964     0.3563     1.8543 C.3     
   6 C6             1.8876     0.6469     0.7440 C.3     
   7 C7             4.3235    -1.4512     2.8773 C.3     
   8 C8             5.5688    -0.5789     2.6705 C.3     
   9 C9             5.3543     0.2973     1.4381 C.3     
  10 C10            4.1572     1.2163     1.6662 C.3     
  11 C11            6.5767     1.0412     1.0115 C.3     
  12 C12            6.4143     2.5757     1.0558 C.3     
  13 C13            5.2601     2.9902     0.1859 C.3     
  14 C14            3.9798     2.2157     0.5389 C.3     
  15 C15            7.8770     0.8530     1.8056 C.3     
  16 C16            8.7809     1.9420     1.1526 C.3     
  17 C17            7.8187     3.0383     0.6232 C.3     
  18 O18            1.5923    -2.0448    -0.3571 O.3     
  19 O19            5.7691     0.2336     3.8277 O.3     
  20 C20            7.9415     3.1638    -0.8896 C.3     
  21 C21            7.5972     1.8235    -1.5421 C.3     
  22 C22            7.7256     1.9481    -3.0616 C.3     
  23 C23            7.3866     0.6278    -3.7044 C.2     
  24 N24            7.4317     0.4998    -5.0453 N.am    
  25 O25            7.0730    -0.3194    -3.0150 O.2     
  26 C26            7.1021    -0.7836    -5.6701 C.3     
  27 C27            7.2305    -0.6590    -7.1896 C.3     
  28 C28            6.2357     3.1144     2.4811 C.3     
  29 C29            2.2819     0.7246     3.2085 C.3     
  30 C30            9.3749     3.5553    -1.2542 C.3     
  31 S31            6.8223    -2.2481    -7.9633 S.o2    
  32 O32            5.6718    -2.8182    -7.3545 O.2     
  33 O33            6.9344    -2.1579    -9.3769 O.2     
  34 H34           -0.0413    -0.0307     0.0823 H       
  35 H35            0.1262     0.0223     1.8428 H       
  36 H36            0.1277    -2.3065     1.0725 H       
  37 H37            1.5841    -1.8062     2.9915 H       
  38 H38            2.3277    -3.0446     1.9672 H       
  39 H39            3.6873    -1.3598     0.8291 H       
  40 H40            2.3390     0.4298    -0.2259 H       
  41 H41            1.5975     1.6983     0.7801 H       
  42 H42            3.9253    -1.2939     3.8763 H       
  43 H43            4.6116    -2.5031     2.7784 H       
  44 H44            6.4376    -1.2193     2.5169 H       
  45 H45            5.0912    -0.3855     0.6015 H       
  46 H46            4.2664     1.7448     2.6171 H       
  47 H47            6.7973     0.7475    -0.0410 H       
  48 H48            5.0740     4.0670     0.3071 H       
  49 H49            5.4755     2.8099    -0.8750 H       
  50 H50            3.6395     1.6909    -0.3642 H       
  51 H51            3.1976     2.9364     0.8122 H       
  52 H52            7.7530     1.0268     2.8643 H       
  53 H53            8.2952    -0.1390     1.6206 H       
  54 H54            9.4527     2.3617     1.8982 H       
  55 H55            9.3443     1.5093     0.3287 H       
  56 H56            8.0444     3.9912     1.1059 H       
  57 H57            0.9992    -1.9002    -1.1071 H       
  58 H58            5.9015    -0.2690     4.6431 H       
  59 H59            7.2534     3.9296    -1.2477 H       
  60 H60            8.2829     1.0569    -1.1812 H       
  61 H61            6.5748     1.5464    -1.2854 H       
  62 H62            7.0399     2.7146    -3.4226 H       
  63 H63            8.7481     2.2252    -3.3183 H       
  64 H64            7.6824     1.2575    -5.5966 H       
  65 H65            7.7878    -1.5502    -5.3092 H       
  66 H66            6.0796    -1.0607    -5.4134 H       
  67 H67            6.5448     0.1076    -7.5505 H       
  68 H68            8.2529    -0.3819    -7.4463 H       
  69 H69            7.0306     2.7268     3.1183 H       
  70 H70            6.2803     4.2034     2.4662 H       
  71 H71            5.2692     2.7957     2.8715 H       
  72 H72            3.0035     0.5262     4.0010 H       
  73 H73            2.0193     1.7825     3.2127 H       
  74 H74            1.3857     0.1271     3.3754 H       
  75 H75           10.0511     2.7405    -0.9955 H       
  76 H76            9.4366     3.7527    -2.3244 H       
  77 H77            9.6582     4.4517    -0.7025 H       
  78 H78            7.8278    -3.0652    -7.6023 H       
@<TRIPOS>BOND
   1    1    2 1
   2    1    6 1
   3    1   34 1
   4    1   35 1
   5    2    3 1
   6    2   18 1
   7    2   36 1
   8    3    4 1
   9    3   37 1
  10    3   38 1
  11    4    5 1
  12    4    7 1
  13    4   39 1
  14    5    6 1
  15    5   29 1
  16    5   10 1
  17    6   40 1
  18    6   41 1
  19    7    8 1
  20    7   42 1
  21    7   43 1
  22    8    9 1
  23    8   19 1
  24    8   44 1
  25    9   10 1
  26    9   11 1
  27    9   45 1
  28   10   14 1
  29   10   46 1
  30   11   12 1
  31   11   15 1
  32   11   47 1
  33   12   13 1
  34   12   28 1
  35   12   17 1
  36   13   14 1
  37   13   48 1
  38   13   49 1
  39   14   50 1
  40   14   51 1
  41   15   16 1
  42   15   52 1
  43   15   53 1
  44   16   17 1
  45   16   54 1
  46   16   55 1
  47   17   20 1
  48   17   56 1
  49   18   57 1
  50   19   58 1
  51   20   21 1
  52   20   30 1
  53   20   59 1
  54   21   22 1
  55   21   60 1
  56   21   61 1
  57   22   23 1
  58   22   62 1
  59   22   63 1
  60   23   24 am
  61   23   25 2
  62   24   26 1
  63   24   64 1
  64   26   27 1
  65   26   65 1
  66   26   66 1
  67   27   31 1
  68   27   67 1
  69   27   68 1
  70   28   69 1
  71   28   70 1
  72   28   71 1
  73   29   72 1
  74   29   73 1
  75   29   74 1
  76   30   75 1
  77   30   76 1
  78   30   77 1
  79   31   32 2
  80   31   33 2
  81   31   78 1

#	End of record

