#	Name: ASD07730018
#	Creating user name:	WinNT
#	Creation time:	15. 06. 2019 21:11

#	Modifying user name:	WinNT
#	Modification time:	15. 06. 2019 21:11

#	Program:	/corina/corina34_cracker 3.40 0067  02.08.2006

@<TRIPOS>MOLECULE
ASD07730018
  37   39    0    0    0
SMALL
NO_CHARGES


@<TRIPOS>ATOM
   1 C1            -0.0194     1.3741    -0.0511 C.ar    
   2 C2             0.0819     0.1420     0.5682 C.ar    
   3 C3             1.2896    -0.5322     0.5755 C.ar    
   4 C4             2.4013     0.0312    -0.0409 C.ar    
   5 C5             2.2945     1.2682    -0.6612 C.ar    
   6 C6             1.0851     1.9360    -0.6647 C.ar    
   7 F7             1.3889    -1.7358     1.1809 F       
   8 N8             3.6264    -0.6480    -0.0355 N.am    
   9 C9             4.7795     0.0412    -0.1445 C.2     
  10 N10            5.9603    -0.6027    -0.0577 N.am    
  11 O11            4.7545     1.2440    -0.3213 O.2     
  12 N12            7.1589     0.1137    -0.1710 N.pl3   
  13 C13            7.2819     1.4672    -0.3709 C.2     
  14 C14            8.4162    -0.4019    -0.0974 C.2     
  15 N15            9.2804     0.5719    -0.2481 N.2     
  16 C16            8.6097     1.7388    -0.4191 C.2     
  17 N17            8.7305    -1.7350     0.1041 N.pl3   
  18 C18            9.2205     3.0750    -0.6228 C.ar    
  19 C19           10.6071     3.2134    -0.6509 C.ar    
  20 C20           11.1700     4.4590    -0.8412 C.ar    
  21 C21           10.3607     5.5691    -1.0035 C.ar    
  22 C22            8.9839     5.4377    -0.9765 C.ar    
  23 C23            8.4100     4.1961    -0.7926 C.ar    
  24 H24           -0.9644     1.8968    -0.0594 H       
  25 H25           -0.7824    -0.2941     1.0469 H       
  26 H26            3.1563     1.7086    -1.1406 H       
  27 H27            1.0021     2.8986    -1.1474 H       
  28 H28            3.6449    -1.6143     0.0467 H       
  29 H29            5.9802    -1.5622     0.0833 H       
  30 H30            6.4756     2.1788    -0.4708 H       
  31 H31            8.0225    -2.3901     0.2064 H       
  32 H32            9.6587    -2.0139     0.1429 H       
  33 H33           11.2399     2.3475    -0.5236 H       
  34 H34           12.2443     4.5674    -0.8632 H       
  35 H35           10.8054     6.5420    -1.1515 H       
  36 H36            8.3569     6.3079    -1.1034 H       
  37 H37            7.3350     4.0947    -0.7717 H       
@<TRIPOS>BOND
   1    1    2 ar
   2    1    6 ar
   3    1   24 1
   4    2    3 ar
   5    2   25 1
   6    3    4 ar
   7    3    7 1
   8    4    5 ar
   9    4    8 1
  10    5    6 ar
  11    5   26 1
  12    6   27 1
  13    8    9 am
  14    8   28 1
  15    9   10 am
  16    9   11 2
  17   10   12 1
  18   10   29 1
  19   12   13 1
  20   12   14 1
  21   13   16 2
  22   13   30 1
  23   14   15 2
  24   14   17 1
  25   15   16 1
  26   16   18 1
  27   17   31 1
  28   17   32 1
  29   18   19 ar
  30   18   23 ar
  31   19   20 ar
  32   19   33 1
  33   20   21 ar
  34   20   34 1
  35   21   22 ar
  36   21   35 1
  37   22   23 ar
  38   22   36 1
  39   23   37 1

#	End of record

