#	Name: ASD01231403
#	Creating user name:	WinNT
#	Creation time:	15. 06. 2019 19:15

#	Modifying user name:	WinNT
#	Modification time:	15. 06. 2019 19:15

#	Program:	/corina/corina34_cracker 3.40 0067  02.08.2006

@<TRIPOS>MOLECULE
ASD01231403
  46   48    0    0    0
SMALL
NO_CHARGES


@<TRIPOS>ATOM
   1 C1            -3.2683     1.2106     1.5076 C.3     
   2 C2            -2.8351    -0.2560     1.5567 C.3     
   3 C3            -4.0705    -1.1555     1.4811 C.3     
   4 S4            -1.7420    -0.6108     0.1532 S.o2    
   5 O5            -2.4593    -0.5291    -1.0707 O.2     
   6 O6            -0.4927     0.0466     0.3155 O.2     
   7 N7            -1.3800    -2.2194     0.3078 N.am    
   8 C8             0.8868    -2.8037     1.1178 C.3     
   9 C9            -0.6130    -2.6898     1.4639 C.3     
  10 C10           -0.9842    -4.1468     1.8125 C.3     
  11 C11            0.3055    -4.7813     2.2876 C.ar    
  12 C12            0.5197    -5.9415     3.0114 C.ar    
  13 C13            1.8093    -6.3312     3.3373 C.ar    
  14 C14            2.8870    -5.5548     2.9355 C.ar    
  15 C15            2.6702    -4.3988     2.2136 C.ar    
  16 C16            1.3809    -4.0094     1.8884 C.ar    
  17 O17            2.0177    -7.4701     4.0488 O.3     
  18 C18            2.3148    -7.3522     5.3673 C.ar    
  19 C19            2.4347    -8.4935     6.1504 C.ar    
  20 C20            2.7380    -8.3594     7.4938 C.ar    
  21 C21            2.9115    -7.0819     8.0091 C.ar    
  22 C22            2.7774    -5.9921     7.1724 C.ar    
  23 N23            2.4928    -6.1519     5.8938 N.ar    
  24 C24            2.9643    -4.6025     7.7248 C.3     
  25 F25            4.3088    -4.2326     7.6113 F       
  26 F26            2.1708    -3.7035     7.0042 F       
  27 F27            2.5870    -4.5815     9.0718 F       
  28 H28           -3.9252     1.4238     2.3509 H       
  29 H29           -2.3882     1.8514     1.5615 H       
  30 H30           -3.8002     1.4014     0.5755 H       
  31 H31           -2.3033    -0.4467     2.4888 H       
  32 H32           -4.6482    -0.9053     0.5913 H       
  33 H33           -3.7579    -2.1984     1.4300 H       
  34 H34           -4.6854    -1.0035     2.3681 H       
  35 H35           -1.6758    -2.8501    -0.3672 H       
  36 H36            1.0170    -2.9599     0.0469 H       
  37 H37            1.4178    -1.9070     1.4373 H       
  38 H38           -0.7639    -2.0355     2.3226 H       
  39 H39           -1.7307    -4.1673     2.6064 H       
  40 H40           -1.3569    -4.6640     0.9284 H       
  41 H41           -0.3203    -6.5445     3.3233 H       
  42 H42            3.8935    -5.8545     3.1876 H       
  43 H43            3.5092    -3.7949     1.9011 H       
  44 H44            2.2927    -9.4723     5.7165 H       
  45 H45            2.8371    -9.2285     8.1271 H       
  46 H46            3.1486    -6.9423     9.0535 H       
@<TRIPOS>BOND
   1    1    2 1
   2    1   28 1
   3    1   29 1
   4    1   30 1
   5    2    3 1
   6    2    4 1
   7    2   31 1
   8    3   32 1
   9    3   33 1
  10    3   34 1
  11    4    5 2
  12    4    6 2
  13    4    7 am
  14    7    9 1
  15    7   35 1
  16    8    9 1
  17    8   16 1
  18    8   36 1
  19    8   37 1
  20    9   10 1
  21    9   38 1
  22   10   11 1
  23   10   39 1
  24   10   40 1
  25   11   12 ar
  26   11   16 ar
  27   12   13 ar
  28   12   41 1
  29   13   14 ar
  30   13   17 1
  31   14   15 ar
  32   14   42 1
  33   15   16 ar
  34   15   43 1
  35   17   18 1
  36   18   19 ar
  37   18   23 ar
  38   19   20 ar
  39   19   44 1
  40   20   21 ar
  41   20   45 1
  42   21   22 ar
  43   21   46 1
  44   22   23 ar
  45   22   24 1
  46   24   25 1
  47   24   26 1
  48   24   27 1

#	End of record

