#	Name: ASD02038885
#	Creating user name:	WinNT
#	Creation time:	15. 06. 2019 20:17

#	Modifying user name:	WinNT
#	Modification time:	15. 06. 2019 20:17

#	Program:	/corina/corina34_cracker 3.40 0067  02.08.2006

@<TRIPOS>MOLECULE
ASD02038885
  32   32    0    0    0
SMALL
NO_CHARGES


@<TRIPOS>ATOM
   1 N1            -0.0179     1.4660     0.0101 N.am    
   2 C2             0.0021    -0.0041     0.0020 C.3     
   3 C3             1.4812    -0.4420    -0.0417 C.3     
   4 C4             2.1956     0.8049    -0.6268 C.3     
   5 C5             1.3719     1.9577    -0.0005 C.3     
   6 C6            -0.6521    -0.5324     1.2526 C.2     
   7 O7            -0.7900     0.1880     2.2128 O.2     
   8 O8            -1.0815    -1.8033     1.2998 O.3     
   9 C9            -1.1236     2.2365     0.0197 C.2     
  10 O10           -2.2237     1.7205     0.0223 O.2     
  11 O11           -1.0093     3.5780     0.0264 O.3     
  12 C12           -2.2424     4.3446     0.0367 C.3     
  13 C13           -3.0502     3.9946     1.2880 C.3     
  14 C14           -1.9138     5.8389     0.0432 C.3     
  15 C15           -3.0624     4.0082    -1.2104 C.3     
  16 H16           -0.5211    -0.3771    -0.8784 H       
  17 H17            1.8482    -0.6617     0.9609 H       
  18 H18            1.6093    -1.3030    -0.6977 H       
  19 H19            3.2356     0.8471    -0.3030 H       
  20 H20            2.1257     0.8207    -1.7144 H       
  21 H21            1.4517     2.8565    -0.6119 H       
  22 H22            1.7113     2.1579     1.0158 H       
  23 H23           -1.4947    -2.0967     2.1234 H       
  24 H24           -2.4659     4.2343     2.1764 H       
  25 H25           -3.9758     4.5701     1.2957 H       
  26 H26           -3.2842     2.9300     1.2834 H       
  27 H27           -1.3383     6.0883    -0.8483 H       
  28 H28           -2.8395     6.4144     0.0508 H       
  29 H29           -1.3296     6.0786     0.9316 H       
  30 H30           -3.2965     2.9436    -1.2150 H       
  31 H31           -3.9881     4.5837    -1.2027 H       
  32 H32           -2.4869     4.2575    -2.1019 H       
@<TRIPOS>BOND
   1    1    2 1
   2    1    5 1
   3    1    9 am
   4    2    3 1
   5    2    6 1
   6    2   16 1
   7    3    4 1
   8    3   17 1
   9    3   18 1
  10    4    5 1
  11    4   19 1
  12    4   20 1
  13    5   21 1
  14    5   22 1
  15    6    7 2
  16    6    8 1
  17    8   23 1
  18    9   10 2
  19    9   11 1
  20   11   12 1
  21   12   13 1
  22   12   15 1
  23   12   14 1
  24   13   24 1
  25   13   25 1
  26   13   26 1
  27   14   27 1
  28   14   28 1
  29   14   29 1
  30   15   30 1
  31   15   31 1
  32   15   32 1

#	End of record

