#	Name: ASD01900937
#	Creating user name:	WinNT
#	Creation time:	15. 06. 2019 19:52

#	Modifying user name:	WinNT
#	Modification time:	15. 06. 2019 19:52

#	Program:	/corina/corina34_cracker 3.40 0067  02.08.2006

@<TRIPOS>MOLECULE
ASD01900937
  44   47    0    0    0
SMALL
NO_CHARGES


@<TRIPOS>ATOM
   1 C1            -0.0168     1.3892     0.0097 C.ar    
   2 C2             0.0021    -0.0041     0.0020 C.ar    
   3 C3             1.2224    -0.6605    -0.0132 C.ar    
   4 C4             2.3820     0.0992    -0.0202 C.ar    
   5 C5             2.2885     1.4816    -0.0119 C.ar    
   6 N6             1.1170     2.0793     0.0026 N.ar    
   7 C7            -1.3129     2.1060     0.0197 C.2     
   8 O8            -2.3540     1.4792     0.0212 O.2     
   9 N9            -1.3376     3.4535     0.0271 N.am    
  10 S10           -4.0881     3.3733     0.0403 S.3     
  11 C11           -2.5528     4.1257     0.0365 C.2     
  12 N12           -2.6883     5.4151     0.0445 N.2     
  13 C13           -3.9211     5.8862     0.0536 C.2     
  14 C14           -4.8727     4.9506     0.0533 C.2     
  15 S15           -6.6104     5.2420     0.0640 S.o2    
  16 O16           -7.1574     4.0768     0.6660 O.2     
  17 O17           -6.7483     6.5167     0.6766 O.2     
  18 C18           -7.0661     5.3259    -1.6899 C.3     
  19 C19           -8.5473     5.5748    -1.8127 C.ar    
  20 C20           -9.0291     6.8711    -1.8639 C.ar    
  21 C21          -10.3885     7.0994    -1.9766 C.ar    
  22 C22          -11.2660     6.0315    -2.0380 C.ar    
  23 C23          -10.7832     4.7361    -1.9867 C.ar    
  24 C24           -9.4238     4.5085    -1.8797 C.ar    
  25 Cl25         -12.9725     6.3170    -2.1789 Cl      
  26 Cl26          -7.9273     8.2104    -1.7862 Cl      
  27 C27           -4.2291     7.3614     0.0639 C.3     
  28 C28           -3.7029     8.1847     1.2412 C.3     
  29 C29           -3.0613     8.3284    -0.1403 C.3     
  30 H30           -0.9212    -0.5644     0.0082 H       
  31 H31            1.2690    -1.7395    -0.0191 H       
  32 H32            3.3489    -0.3818    -0.0317 H       
  33 H33            3.1899     2.0764    -0.0174 H       
  34 H34           -0.5066     3.9539     0.0259 H       
  35 H35           -6.5202     6.1389    -2.1686 H       
  36 H36           -6.8145     4.3834    -2.1761 H       
  37 H37          -10.7650     8.1109    -2.0163 H       
  38 H38          -11.4681     3.9024    -2.0343 H       
  39 H39           -9.0470     3.4970    -1.8445 H       
  40 H40           -5.1952     7.6428    -0.3551 H       
  41 H41           -4.3225     9.0081     1.5965 H       
  42 H42           -3.1338     7.6594     2.0083 H       
  43 H43           -2.0701     7.8977    -0.2821 H       
  44 H44           -3.2588     9.2463    -0.6939 H       
@<TRIPOS>BOND
   1    1    2 ar
   2    1    6 ar
   3    1    7 1
   4    2    3 ar
   5    2   30 1
   6    3    4 ar
   7    3   31 1
   8    4    5 ar
   9    4   32 1
  10    5    6 ar
  11    5   33 1
  12    7    8 2
  13    7    9 am
  14    9   11 1
  15    9   34 1
  16   10   11 1
  17   10   14 1
  18   11   12 2
  19   12   13 1
  20   13   14 2
  21   13   27 1
  22   14   15 1
  23   15   16 2
  24   15   17 2
  25   15   18 1
  26   18   19 1
  27   18   35 1
  28   18   36 1
  29   19   20 ar
  30   19   24 ar
  31   20   21 ar
  32   20   26 1
  33   21   22 ar
  34   21   37 1
  35   22   23 ar
  36   22   25 1
  37   23   24 ar
  38   23   38 1
  39   24   39 1
  40   27   28 1
  41   27   29 1
  42   27   40 1
  43   28   29 1
  44   28   41 1
  45   28   42 1
  46   29   43 1
  47   29   44 1

#	End of record

