#	Name: ASD01810048
#	Creating user name:	WinNT
#	Creation time:	15. 06. 2019 19:23

#	Modifying user name:	WinNT
#	Modification time:	15. 06. 2019 19:23

#	Program:	/corina/corina34_cracker 3.40 0067  02.08.2006

@<TRIPOS>MOLECULE
ASD01810048
  61   66    0    0    0
SMALL
NO_CHARGES


@<TRIPOS>ATOM
   1 C1             0.1664     1.6591    -0.2448 C.ar    
   2 C2             0.1414     0.2982     0.0849 C.ar    
   3 C3             1.2900    -0.4917    -0.0854 C.ar    
   4 C4             2.4649     0.0832    -0.5861 C.ar    
   5 C5             2.4910     1.4480    -0.9165 C.ar    
   6 C6             1.3459     2.2362    -0.7479 C.ar    
   7 N7             3.7112    -0.4524    -0.8468 N.pl3   
   8 C8             4.5596     0.5236    -1.3406 C.ar    
   9 C9             3.8505     1.7328    -1.4059 C.ar    
  10 C10            5.8905     0.4896    -1.7455 C.ar    
  11 C11            6.5029     1.6352    -2.2051 C.ar    
  12 C12            5.8011     2.8345    -2.2703 C.ar    
  13 C13            4.4784     2.8871    -1.8729 C.ar    
  14 C14           -0.9015    -0.5931     0.6200 C.ar    
  15 C15           -0.3172    -1.8642     0.7389 C.ar    
  16 N16            0.9947    -1.7817     0.3114 N.pl3   
  17 C17           -2.2318    -0.3995     0.9883 C.ar    
  18 C18           -2.9698    -1.4595     1.4689 C.ar    
  19 C19           -2.3939    -2.7152     1.5872 C.ar    
  20 C20           -1.0795    -2.9213     1.2259 C.ar    
  21 C21            1.0320     3.6563    -0.9867 C.2     
  22 N22           -0.2495     3.8758    -0.6419 N.am    
  23 C23           -0.8250     2.7480    -0.1879 C.2     
  24 O24           -1.9735     2.6422     0.1945 O.2     
  25 C25            1.9378    -2.9025     0.2831 C.3     
  26 C26            4.0822    -1.8531    -0.6309 C.3     
  27 O27            1.8021     4.4894    -1.4218 O.2     
  28 C28            4.6174    -2.0255     0.7920 C.3     
  29 C29            4.8919    -3.5071     1.0576 C.3     
  30 N30            5.2914    -3.6873     2.4597 N.3     
  31 O31            5.8294    -1.2828     0.9383 O.3     
  32 C32            4.1818    -3.3691     3.3683 C.3     
  33 C33            5.7898    -5.0492     2.6942 C.3     
  34 O34            6.4179     3.9577    -2.7256 O.3     
  35 C35            7.7859     3.8323    -3.1194 C.3     
  36 H36            6.4446    -0.4363    -1.6990 H       
  37 H37            7.5363     1.6018    -2.5170 H       
  38 H38            3.9334     3.8181    -1.9238 H       
  39 H39           -2.6825     0.5778     0.8978 H       
  40 H40           -4.0007    -1.3115     1.7548 H       
  41 H41           -2.9805    -3.5395     1.9652 H       
  42 H42           -0.6409    -3.9034     1.3225 H       
  43 H43           -0.6970     4.7340    -0.7064 H       
  44 H44            1.9988    -3.3004    -0.7298 H       
  45 H45            2.9225    -2.5568     0.5977 H       
  46 H46            1.5936    -3.6841     0.9604 H       
  47 H47            3.2058    -2.4865    -0.7687 H       
  48 H48            4.8533    -2.1391    -1.3463 H       
  49 H49            3.8786    -1.6594     1.5049 H       
  50 H50            3.9892    -4.0850     0.8599 H       
  51 H51            5.6938    -3.8508     0.4043 H       
  52 H52            6.5070    -1.5030     0.2844 H       
  53 H53            3.3392    -4.0277     3.1575 H       
  54 H54            4.5046    -3.5110     4.3997 H       
  55 H55            3.8782    -2.3326     3.2219 H       
  56 H56            6.6551    -5.2340     2.0577 H       
  57 H57            6.0785    -5.1554     3.7399 H       
  58 H58            5.0055    -5.7686     2.4590 H       
  59 H59            8.3794     3.4964    -2.2691 H       
  60 H60            7.8660     3.1059    -3.9280 H       
  61 H61            8.1556     4.7990    -3.4613 H       
@<TRIPOS>BOND
   1    1    2 ar
   2    1    6 ar
   3    1   23 1
   4    2    3 ar
   5    2   14 1
   6    3    4 ar
   7    3   16 1
   8    4    5 ar
   9    4    7 1
  10    5    6 ar
  11    5    9 1
  12    6   21 1
  13    7    8 1
  14    7   26 1
  15    8    9 ar
  16    8   10 ar
  17    9   13 ar
  18   10   11 ar
  19   10   36 1
  20   11   12 ar
  21   11   37 1
  22   12   13 ar
  23   12   34 1
  24   13   38 1
  25   14   15 ar
  26   14   17 ar
  27   15   16 1
  28   15   20 ar
  29   16   25 1
  30   17   18 ar
  31   17   39 1
  32   18   19 ar
  33   18   40 1
  34   19   20 ar
  35   19   41 1
  36   20   42 1
  37   21   22 am
  38   21   27 2
  39   22   23 am
  40   22   43 1
  41   23   24 2
  42   25   44 1
  43   25   45 1
  44   25   46 1
  45   26   28 1
  46   26   47 1
  47   26   48 1
  48   28   29 1
  49   28   31 1
  50   28   49 1
  51   29   30 1
  52   29   50 1
  53   29   51 1
  54   30   32 1
  55   30   33 1
  56   31   52 1
  57   32   53 1
  58   32   54 1
  59   32   55 1
  60   33   56 1
  61   33   57 1
  62   33   58 1
  63   34   35 1
  64   35   59 1
  65   35   60 1
  66   35   61 1

#	End of record

