#	Name: ASD02198187
#	Creating user name:	WinNT
#	Creation time:	15. 06. 2019 20:18

#	Modifying user name:	WinNT
#	Modification time:	15. 06. 2019 20:18

#	Program:	/corina/corina34_cracker 3.40 0067  02.08.2006

@<TRIPOS>MOLECULE
ASD02198187
  43   45    0    0    0
SMALL
NO_CHARGES


@<TRIPOS>ATOM
   1 C1            -0.0182     1.3435    -0.2910 C.2     
   2 C2             0.0098    -0.0346    -0.2533 C.2     
   3 C3            -1.1723    -0.8412    -0.3060 C.1     
   4 S4             1.5589     1.9861    -0.2104 S.3     
   5 C5             2.2775     0.3858    -0.1243 C.2     
   6 C6             1.2923    -0.5716    -0.1602 C.2     
   7 C7             3.6582     0.1229    -0.0322 C.2     
   8 C8             4.6307     1.2302    -0.1466 C.ar    
   9 O9             4.0513    -1.0184     0.1419 O.2     
  10 N10            1.5483    -1.9332    -0.1089 N.pl3   
  11 N11           -1.1641     2.0980    -0.3867 N.pl3   
  12 N12           -2.1100    -1.4810    -0.3479 N.1     
  13 C13            5.8548     1.1589     0.5223 C.ar    
  14 C14           -1.0777     3.5601    -0.4190 C.3     
  15 C15            6.7584     2.1928     0.4134 C.ar    
  16 C16            6.4535     3.3058    -0.3609 C.ar    
  17 C17            5.2367     3.3804    -1.0279 C.ar    
  18 C18            4.3303     2.3479    -0.9284 C.ar    
  19 C19           -2.3112     4.1454    -1.1286 C.3     
  20 O20            7.3464     4.3229    -0.4655 O.3     
  21 C21           -3.0280     5.0425    -0.0984 C.3     
  22 C22           -1.9164     5.4262     0.9097 C.3     
  23 C23           -1.0879     4.1219     1.0177 C.3     
  24 C24            6.9690     5.4366    -1.2775 C.3     
  25 H25            2.4618    -2.2528    -0.0441 H       
  26 H26            0.8138    -2.5662    -0.1377 H       
  27 H27           -2.0294     1.6621    -0.4328 H       
  28 H28            6.0923     0.2944     1.1245 H       
  29 H29           -0.1686     3.8689    -0.9349 H       
  30 H30            7.7049     2.1385     0.9306 H       
  31 H31            5.0031     4.2471    -1.6284 H       
  32 H32            3.3849     2.4065    -1.4474 H       
  33 H33           -2.0007     4.7390    -1.9885 H       
  34 H34           -2.9741     3.3417    -1.4490 H       
  35 H35           -3.4287     5.9335    -0.5817 H       
  36 H36           -3.8224     4.4889     0.4022 H       
  37 H37           -1.3057     6.2405     0.5199 H       
  38 H38           -2.3458     5.6921     1.8756 H       
  39 H39           -1.5690     3.4197     1.6985 H       
  40 H40           -0.0728     4.3411     1.3489 H       
  41 H41            7.7699     6.1759    -1.2753 H       
  42 H42            6.7898     5.0981    -2.2979 H       
  43 H43            6.0593     5.8854    -0.8785 H       
@<TRIPOS>BOND
   1    1    2 2
   2    1    4 1
   3    1   11 1
   4    2    3 1
   5    2    6 1
   6    3   12 3
   7    4    5 1
   8    5    6 2
   9    5    7 1
  10    6   10 1
  11    7    8 1
  12    7    9 2
  13    8   13 ar
  14    8   18 ar
  15   10   25 1
  16   10   26 1
  17   11   14 1
  18   11   27 1
  19   13   15 ar
  20   13   28 1
  21   14   19 1
  22   14   23 1
  23   14   29 1
  24   15   16 ar
  25   15   30 1
  26   16   17 ar
  27   16   20 1
  28   17   18 ar
  29   17   31 1
  30   18   32 1
  31   19   21 1
  32   19   33 1
  33   19   34 1
  34   20   24 1
  35   21   22 1
  36   21   35 1
  37   21   36 1
  38   22   23 1
  39   22   37 1
  40   22   38 1
  41   23   39 1
  42   23   40 1
  43   24   41 1
  44   24   42 1
  45   24   43 1

#	End of record

