#	Name: ASD08151172
#	Creating user name:	WinNT
#	Creation time:	15. 06. 2019 21:17

#	Modifying user name:	WinNT
#	Modification time:	15. 06. 2019 21:17

#	Program:	/corina/corina34_cracker 3.40 0067  02.08.2006

@<TRIPOS>MOLECULE
ASD08151172
  49   53    0    0    0
SMALL
NO_CHARGES


@<TRIPOS>ATOM
   1 C1            -0.0172     1.4138     0.0098 C.ar    
   2 C2             0.0021    -0.0041     0.0020 C.ar    
   3 C3             1.2051     2.1060     0.0019 C.ar    
   4 N4             2.3399     1.4463    -0.0125 N.ar    
   5 C5             2.4038     0.1239    -0.0203 C.ar    
   6 C6             1.2601    -0.6557    -0.0135 C.ar    
   7 C7             1.2137     3.6129     0.0094 C.3     
   8 C8             1.3492    -2.1345    -0.0228 C.ar    
   9 C9             1.8946    -2.7957    -1.1227 C.ar    
  10 C10           -1.2045    -0.7127     0.0093 C.ar    
  11 C11           -2.3843    -0.0298     0.0238 C.ar    
  12 C12           -2.4062     1.3633     0.0310 C.ar    
  13 C13           -1.2508     2.0842     0.0194 C.ar    
  14 C14            3.7527    -0.5480    -0.0373 C.3     
  15 C15            4.3617    -0.4337    -1.4362 C.3     
  16 N16            4.6349     0.1033     0.9341 N.pl3   
  17 C17            5.6955    -0.5959     1.4833 C.ar    
  18 C18            6.5517     0.0127     2.4164 C.ar    
  19 C19            7.6111    -0.7481     2.9395 C.ar    
  20 N20            7.7637    -2.0053     2.5369 N.ar    
  21 C21            6.9361    -2.5343     1.6604 C.ar    
  22 N22            5.9244    -1.8606     1.1445 N.ar    
  23 N23            6.6232     1.2403     2.9848 N.2     
  24 C24            7.6340     1.2804     3.8035 C.2     
  25 N25            8.2754     0.0776     3.8108 N.pl3   
  26 C26            0.8931    -2.8698     1.0707 C.ar    
  27 C27            0.9794    -4.2490     1.0560 C.ar    
  28 C28            1.5179    -4.8997    -0.0427 C.ar    
  29 C29            1.9760    -4.1735    -1.1267 C.ar    
  30 F30            0.5387    -4.9638     2.1143 F       
  31 H31            1.2254     3.9710     1.0388 H       
  32 H32            2.1009     3.9738    -0.5109 H       
  33 H33            0.3211     3.9839    -0.4942 H       
  34 H34            2.2527    -2.2305    -1.9705 H       
  35 H35           -1.2011    -1.7927     0.0031 H       
  36 H36           -3.3156    -0.5766     0.0295 H       
  37 H37           -3.3547     1.8797     0.0418 H       
  38 H38           -1.2832     3.1637     0.0256 H       
  39 H39            3.6380    -1.5999     0.2242 H       
  40 H40            4.4765     0.6183    -1.6977 H       
  41 H41            5.3373    -0.9196    -1.4485 H       
  42 H42            3.7053    -0.9182    -2.1590 H       
  43 H43            4.4758     1.0246     1.1924 H       
  44 H44            7.0883    -3.5588     1.3544 H       
  45 H45            7.9223     2.1399     4.3905 H       
  46 H46            9.0580    -0.1524     4.3358 H       
  47 H47            0.4738    -2.3628     1.9271 H       
  48 H48            1.5837    -5.9776    -0.0507 H       
  49 H49            2.3943    -4.6859    -1.9804 H       
@<TRIPOS>BOND
   1    1    2 ar
   2    1    3 ar
   3    1   13 ar
   4    2   10 ar
   5    2    6 ar
   6    3    4 ar
   7    3    7 1
   8    4    5 ar
   9    5    6 ar
  10    5   14 1
  11    6    8 1
  12    7   31 1
  13    7   32 1
  14    7   33 1
  15    8   26 ar
  16    8    9 ar
  17    9   29 ar
  18    9   34 1
  19   10   11 ar
  20   10   35 1
  21   11   12 ar
  22   11   36 1
  23   12   13 ar
  24   12   37 1
  25   13   38 1
  26   14   15 1
  27   14   16 1
  28   14   39 1
  29   15   40 1
  30   15   41 1
  31   15   42 1
  32   16   17 1
  33   16   43 1
  34   17   18 ar
  35   17   22 ar
  36   18   19 ar
  37   18   23 1
  38   19   20 ar
  39   19   25 1
  40   20   21 ar
  41   21   22 ar
  42   21   44 1
  43   23   24 2
  44   24   25 1
  45   24   45 1
  46   25   46 1
  47   26   27 ar
  48   26   47 1
  49   27   28 ar
  50   27   30 1
  51   28   29 ar
  52   28   48 1
  53   29   49 1

#	End of record

