#	Name: ASD01815846
#	Creating user name:	WinNT
#	Creation time:	15. 06. 2019 19:34

#	Modifying user name:	WinNT
#	Modification time:	15. 06. 2019 19:34

#	Program:	/corina/corina34_cracker 3.40 0067  02.08.2006

@<TRIPOS>MOLECULE
ASD01815846
  50   55    0    0    0
SMALL
NO_CHARGES


@<TRIPOS>ATOM
   1 C1            -0.0167     1.3838     0.0097 C.ar    
   2 C2             0.0021    -0.0041     0.0020 C.ar    
   3 C3            -1.1856    -0.7101     0.0095 C.ar    
   4 C4            -2.3929    -0.0367     0.0242 C.ar    
   5 C5            -2.4172     1.3462     0.0318 C.ar    
   6 C6            -1.2326     2.0594     0.0307 C.ar    
   7 F7            -1.2561     3.4102     0.0387 F       
   8 N8             1.1857     2.1023     0.0020 N.am    
   9 C9             1.8869     2.4210    -1.1072 C.2     
  10 N10            1.8274     2.5965     1.1405 N.2     
  11 C11            2.9247     3.2222     0.8240 C.2     
  12 C12            3.0576     3.1628    -0.6492 C.2     
  13 O13            1.5997     2.1445    -2.2605 O.2     
  14 C14            3.9842     3.9284     1.5710 C.ar    
  15 C15            5.0430     4.4907     0.8397 C.ar    
  16 N16            5.0871     4.3839    -0.5382 N.pl3   
  17 C17            4.1405     3.7530    -1.2525 C.2     
  18 N18            3.9434     4.0325     2.8916 N.ar    
  19 C19            4.8864     4.6621     3.5617 C.ar    
  20 C20            5.9620     5.2421     2.9091 C.ar    
  21 C21            6.0510     5.1606     1.5303 C.ar    
  22 C22            6.2141     4.9900    -1.2514 C.3     
  23 C23            7.3281     3.9830    -1.3785 C.ar    
  24 C24            7.3804     3.1471    -2.4788 C.ar    
  25 C25            8.3999     2.2229    -2.5979 C.ar    
  26 C26            9.3730     2.1340    -1.6117 C.ar    
  27 C27            9.3181     2.9750    -0.5083 C.ar    
  28 C28            8.2991     3.9007    -0.3974 C.ar    
  29 N29           10.4087     1.1967    -1.7295 N.pl3   
  30 C30           11.4146     1.0068    -0.8459 C.2     
  31 C31           12.2009     0.0147    -1.3240 C.2     
  32 C32           11.6587    -0.4166    -2.5397 C.2     
  33 N33           10.5816     0.2868    -2.7805 N.2     
  34 H34            0.9444    -0.5317    -0.0101 H       
  35 H35           -1.1707    -1.7900     0.0036 H       
  36 H36           -3.3193    -0.5918     0.0293 H       
  37 H37           -3.3620     1.8692     0.0432 H       
  38 H38            4.2355     3.7057    -2.3273 H       
  39 H39            4.8199     4.7275     4.6377 H       
  40 H40            6.7269     5.7551     3.4732 H       
  41 H41            6.8814     5.6057     1.0024 H       
  42 H42            5.8906     5.3012    -2.2446 H       
  43 H43            6.5706     5.8580    -0.6967 H       
  44 H44            6.6231     3.2168    -3.2456 H       
  45 H45            8.4398     1.5699    -3.4571 H       
  46 H46           10.0735     2.9079     0.2606 H       
  47 H47            8.2558     4.5551     0.4606 H       
  48 H48           11.5640     1.5499     0.0756 H       
  49 H49           13.0899    -0.3753    -0.8509 H       
  50 H50           12.0577    -1.1986    -3.1687 H       
@<TRIPOS>BOND
   1    1    2 ar
   2    1    8 1
   3    1    6 ar
   4    2    3 ar
   5    2   34 1
   6    3    4 ar
   7    3   35 1
   8    4    5 ar
   9    4   36 1
  10    5    6 ar
  11    5   37 1
  12    6    7 1
  13    8    9 am
  14    8   10 1
  15    9   13 2
  16    9   12 1
  17   10   11 2
  18   11   12 1
  19   11   14 1
  20   12   17 2
  21   14   15 ar
  22   14   18 ar
  23   15   16 1
  24   15   21 ar
  25   16   17 1
  26   16   22 1
  27   17   38 1
  28   18   19 ar
  29   19   20 ar
  30   19   39 1
  31   20   21 ar
  32   20   40 1
  33   21   41 1
  34   22   23 1
  35   22   42 1
  36   22   43 1
  37   23   24 ar
  38   23   28 ar
  39   24   25 ar
  40   24   44 1
  41   25   26 ar
  42   25   45 1
  43   26   27 ar
  44   26   29 1
  45   27   28 ar
  46   27   46 1
  47   28   47 1
  48   29   30 1
  49   29   33 1
  50   30   31 2
  51   30   48 1
  52   31   32 1
  53   31   49 1
  54   32   33 2
  55   32   50 1

#	End of record

