#	Name: ASD03240825
#	Creating user name:	WinNT
#	Creation time:	15. 06. 2019 20:35

#	Modifying user name:	WinNT
#	Modification time:	15. 06. 2019 20:35

#	Program:	/corina/corina34_cracker 3.40 0067  02.08.2006

@<TRIPOS>MOLECULE
ASD03240825
  51   56    0    0    0
SMALL
NO_CHARGES


@<TRIPOS>ATOM
   1 O1            -0.0161     1.3337    -0.0016 O.3     
   2 C2             0.0020    -0.0040    -0.0126 C.2     
   3 N3             1.2348    -0.5293    -0.0126 N.am    
   4 C4             2.2183     0.5645    -0.0001 C.3     
   5 C5             1.3508     1.8380     0.0074 C.3     
   6 O6            -1.0071    -0.6807    -0.0211 O.2     
   7 C7             1.5367    -1.8933    -0.0224 C.ar    
   8 C8             0.5157    -2.8307     0.0873 C.ar    
   9 C9             0.8103    -4.1766     0.0775 C.ar    
  10 C10            2.1355    -4.5987    -0.0427 C.ar    
  11 C11            3.1584    -3.6552    -0.1526 C.ar    
  12 C12            2.8571    -2.3108    -0.1476 C.ar    
  13 N13            1.2386    -9.0324     1.4946 N.pl3   
  14 C14            1.5179   -10.3723     1.4993 C.2     
  15 N15            2.5128   -10.8955     0.7611 N.2     
  16 C16            3.2719   -10.1546    -0.0047 C.2     
  17 C17            3.0330    -8.7142    -0.0610 C.ar    
  18 C18            3.8115    -7.8701    -0.8608 C.ar    
  19 C19            3.5154    -6.5116    -0.8549 C.ar    
  20 C20            2.4553    -6.0433    -0.0531 C.ar    
  21 N21            1.7400    -6.8733     0.6920 N.ar    
  22 C22            1.9876    -8.1715     0.7158 C.ar    
  23 C23            0.6093   -10.9672     2.3641 C.2     
  24 C24           -0.2100    -9.9662     2.8707 C.2     
  25 N25            0.1619    -8.8156     2.3630 N.2     
  26 C26            4.3053    -5.5675    -1.6812 C.ar    
  27 C27            5.6980    -5.5856    -1.6258 C.ar    
  28 C28            6.4281    -4.7048    -2.3976 C.ar    
  29 C29            5.7804    -3.8049    -3.2247 C.ar    
  30 C30            4.3985    -3.7820    -3.2834 C.ar    
  31 C31            3.6581    -4.6623    -2.5208 C.ar    
  32 C32           -1.3384   -10.1686     3.8488 C.3     
  33 H33            2.8341     0.5154     0.8980 H       
  34 H34            2.8404     0.5302    -0.8945 H       
  35 H35            1.5431     2.4365    -0.8830 H       
  36 H36            1.5368     2.4217     0.9089 H       
  37 H37           -0.5093    -2.5035     0.1807 H       
  38 H38            0.0169    -4.9042     0.1631 H       
  39 H39            4.1845    -3.9788    -0.2458 H       
  40 H40            3.6476    -1.5804    -0.2371 H       
  41 H41            4.0643   -10.6014    -0.5868 H       
  42 H42            4.6173    -8.2617    -1.4639 H       
  43 H43            0.5501   -12.0193     2.6006 H       
  44 H44            6.2048    -6.2874    -0.9799 H       
  45 H45            7.5072    -4.7179    -2.3555 H       
  46 H46            6.3558    -3.1171    -3.8267 H       
  47 H47            3.8981    -3.0770    -3.9307 H       
  48 H48            2.5794    -4.6466    -2.5708 H       
  49 H49           -0.9579   -10.0788     4.8663 H       
  50 H50           -2.1057    -9.4130     3.6799 H       
  51 H51           -1.7680   -11.1604     3.7078 H       
@<TRIPOS>BOND
   1    1    2 1
   2    1    5 1
   3    2    3 am
   4    2    6 2
   5    3    4 1
   6    3    7 1
   7    4    5 1
   8    4   33 1
   9    4   34 1
  10    5   35 1
  11    5   36 1
  12    7    8 ar
  13    7   12 ar
  14    8    9 ar
  15    8   37 1
  16    9   10 ar
  17    9   38 1
  18   10   11 ar
  19   10   20 1
  20   11   12 ar
  21   11   39 1
  22   12   40 1
  23   13   14 1
  24   13   22 1
  25   13   25 1
  26   14   15 1
  27   14   23 2
  28   15   16 2
  29   16   17 1
  30   16   41 1
  31   17   18 ar
  32   17   22 ar
  33   18   19 ar
  34   18   42 1
  35   19   20 ar
  36   19   26 1
  37   20   21 ar
  38   21   22 ar
  39   23   24 1
  40   23   43 1
  41   24   25 2
  42   24   32 1
  43   26   27 ar
  44   26   31 ar
  45   27   28 ar
  46   27   44 1
  47   28   29 ar
  48   28   45 1
  49   29   30 ar
  50   29   46 1
  51   30   31 ar
  52   30   47 1
  53   31   48 1
  54   32   49 1
  55   32   50 1
  56   32   51 1

#	End of record

