#	Name: ASD00843447
#	Creating user name:	WinNT
#	Creation time:	15. 06. 2019 18:46

#	Modifying user name:	WinNT
#	Modification time:	15. 06. 2019 18:46

#	Program:	/corina/corina34_cracker 3.40 0067  02.08.2006

@<TRIPOS>MOLECULE
ASD00843447
  97  102    0    0    0
SMALL
NO_CHARGES


@<TRIPOS>ATOM
   1 F1             5.6969    -2.5329    -1.9401 F       
   2 N2             0.9409     1.0811    -0.3017 N.ar    
   3 C3             1.1028    -0.2043    -0.5673 C.ar    
   4 C4             0.9443    -1.1585     0.4298 C.ar    
   5 C5             0.6139    -0.7471     1.7090 C.ar    
   6 C6             0.4529     0.6112     1.9468 C.ar    
   7 C7             0.6258     1.5038     0.9081 C.ar    
   8 C8             1.1293    -2.6222     0.1223 C.3     
   9 C9             0.7652    -3.4668     1.3247 C.2     
  10 C10            0.2870    -3.0243    -1.0901 C.3     
  11 C11           -1.1520    -2.6473    -0.8494 C.2     
  12 N12           -2.0998    -3.0035    -1.7389 N.am    
  13 O13           -1.4573    -2.0233     0.1448 O.2     
  14 C14           -3.4875    -2.5489    -1.5766 C.3     
  15 C15           -4.4128    -3.7695    -1.6051 C.3     
  16 C16           -4.1586    -4.5674    -2.8861 C.3     
  17 C17           -2.7094    -5.0593    -2.9036 C.3     
  18 C18           -1.7637    -3.8487    -2.8928 C.3     
  19 N19           -5.0674    -5.7206    -2.9328 N.3     
  20 C20           -4.9349    -6.4444    -4.2049 C.3     
  21 C21           -5.8373    -7.6804    -4.1819 C.3     
  22 N22           -7.2287    -7.2637    -3.9588 N.3     
  23 C23           -7.3613    -6.5399    -2.6867 C.3     
  24 C24           -6.4589    -5.3039    -2.7097 C.3     
  25 C25           -8.1376    -8.4168    -4.0055 C.3     
  26 O26           -0.3210    -3.5259     1.8612 O.2     
  27 N27            1.8711    -4.1393     1.6854 N.am    
  28 C28            2.5890    -2.9326    -0.1170 C.ar    
  29 C29            2.9591    -3.8485     0.8598 C.ar    
  30 C30            3.4981    -2.4917    -1.0520 C.ar    
  31 C31            4.8011    -2.9631    -1.0248 C.ar    
  32 C32            5.1820    -3.8768    -0.0553 C.ar    
  33 C33            4.2701    -4.3190     0.8825 C.ar    
  34 Cl34           6.8137    -4.4685    -0.0194 Cl      
  35 C35            1.5209    -6.7883     2.3448 C.ar    
  36 C36            0.2480    -7.0297     1.8481 C.ar    
  37 C37            2.4647    -7.7977     2.3501 C.ar    
  38 C38            2.1438    -9.0492     1.8607 C.ar    
  39 C39            0.8719    -9.2957     1.3628 C.ar    
  40 C40           -0.0767    -8.2850     1.3568 C.ar    
  41 O41            0.5567   -10.5270     0.8819 O.3     
  42 O42           -0.6798    -6.0368     1.8435 O.3     
  43 C43           -1.9694    -6.3563     1.3173 C.3     
  44 C44            1.5832   -11.5205     0.9196 C.3     
  45 C45           -9.5270    -7.9909    -3.5269 C.3     
  46 C46          -10.4735    -9.1920    -3.5756 C.3     
  47 S47            1.9364    -5.1914     2.9626 S.o2    
  48 O48            3.2994    -5.2568     3.3592 O.2     
  49 O49            0.8874    -4.8170     3.8450 O.2     
  50 O50            1.4263    -0.5947    -1.8258 O.3     
  51 C51            1.5279     0.4296    -2.8169 C.3     
  52 C52            1.9995    -0.1831    -4.1371 C.3     
  53 F53            3.2095    -0.8551    -3.9334 F       
  54 F54            1.0373    -1.0859    -4.6023 F       
  55 H55            0.4839    -1.4663     2.5041 H       
  56 H56            0.1947     0.9656     2.9338 H       
  57 H57            0.5021     2.5615     1.0879 H       
  58 H58            0.6550    -2.5067    -1.9760 H       
  59 H59            0.3599    -4.1012    -1.2420 H       
  60 H60           -3.5936    -2.0322    -0.6227 H       
  61 H61           -3.7485    -1.8734    -2.3913 H       
  62 H62           -4.2114    -4.3990    -0.7384 H       
  63 H63           -5.4513    -3.4394    -1.5822 H       
  64 H64           -4.3362    -3.9300    -3.7523 H       
  65 H65           -2.5241    -5.6766    -2.0246 H       
  66 H66           -2.5357    -5.6472    -3.8048 H       
  67 H67           -1.8855    -3.2816    -3.8157 H       
  68 H68           -0.7327    -4.1912    -2.8053 H       
  69 H69           -5.2316    -5.7927    -5.0267 H       
  70 H70           -3.8985    -6.7533    -4.3412 H       
  71 H71           -5.7626    -8.2029    -5.1355 H       
  72 H72           -5.5232    -8.3450    -3.3771 H       
  73 H73           -8.3976    -6.2310    -2.5504 H       
  74 H74           -7.0645    -7.1916    -1.8649 H       
  75 H75           -6.5336    -4.7813    -1.7561 H       
  76 H76           -6.7729    -4.6393    -3.5145 H       
  77 H77           -8.2032    -8.7865    -5.0288 H       
  78 H78           -7.7564    -9.2063    -3.3578 H       
  79 H79            3.1963    -1.7797    -1.8059 H       
  80 H80            4.5739    -5.0313     1.6353 H       
  81 H81            3.4549    -7.6079     2.7372 H       
  82 H82            2.8833    -9.8363     1.8653 H       
  83 H83           -1.0670    -8.4749     0.9700 H       
  84 H84           -2.6122    -5.4778     1.3725 H       
  85 H85           -1.8704    -6.6694     0.2780 H       
  86 H86           -2.4093    -7.1656     1.9002 H       
  87 H87            1.8964   -11.6804     1.9513 H       
  88 H88            1.2005   -12.4541     0.5072 H       
  89 H89            2.4355   -11.1848     0.3289 H       
  90 H90           -9.4613    -7.6213    -2.5036 H       
  91 H91           -9.9082    -7.2014    -4.1747 H       
  92 H92          -10.5392    -9.5616    -4.5989 H       
  93 H93          -10.0923    -9.9815    -2.9279 H       
  94 H94          -11.4634    -8.8886    -3.2346 H       
  95 H95            0.5525     0.8947    -2.9601 H       
  96 H96            2.2447     1.1825    -2.4892 H       
  97 H97            2.1424     0.6072    -4.8740 H       
@<TRIPOS>BOND
   1    1   31 1
   2    2    3 ar
   3    2    7 ar
   4    3    4 ar
   5    3   50 1
   6    4    5 ar
   7    4    8 1
   8    5    6 ar
   9    5   55 1
  10    6    7 ar
  11    6   56 1
  12    7   57 1
  13    8    9 1
  14    8   10 1
  15    8   28 1
  16    9   26 2
  17    9   27 am
  18   10   11 1
  19   10   58 1
  20   10   59 1
  21   11   12 am
  22   11   13 2
  23   12   14 1
  24   12   18 1
  25   14   15 1
  26   14   60 1
  27   14   61 1
  28   15   16 1
  29   15   62 1
  30   15   63 1
  31   16   17 1
  32   16   19 1
  33   16   64 1
  34   17   18 1
  35   17   65 1
  36   17   66 1
  37   18   67 1
  38   18   68 1
  39   19   20 1
  40   19   24 1
  41   20   21 1
  42   20   69 1
  43   20   70 1
  44   21   22 1
  45   21   71 1
  46   21   72 1
  47   22   23 1
  48   22   25 1
  49   23   24 1
  50   23   73 1
  51   23   74 1
  52   24   75 1
  53   24   76 1
  54   25   45 1
  55   25   77 1
  56   25   78 1
  57   27   47 am
  58   27   29 1
  59   28   29 ar
  60   28   30 ar
  61   29   33 ar
  62   30   31 ar
  63   30   79 1
  64   31   32 ar
  65   32   33 ar
  66   32   34 1
  67   33   80 1
  68   35   36 ar
  69   35   37 ar
  70   35   47 1
  71   36   42 1
  72   36   40 ar
  73   37   38 ar
  74   37   81 1
  75   38   39 ar
  76   38   82 1
  77   39   40 ar
  78   39   41 1
  79   40   83 1
  80   41   44 1
  81   42   43 1
  82   43   84 1
  83   43   85 1
  84   43   86 1
  85   44   87 1
  86   44   88 1
  87   44   89 1
  88   45   46 1
  89   45   90 1
  90   45   91 1
  91   46   92 1
  92   46   93 1
  93   46   94 1
  94   47   48 2
  95   47   49 2
  96   50   51 1
  97   51   52 1
  98   51   95 1
  99   51   96 1
 100   52   53 1
 101   52   54 1
 102   52   97 1

#	End of record

