#	Name: ASD01917996
#	Creating user name:	WinNT
#	Creation time:	15. 06. 2019 20:10

#	Modifying user name:	WinNT
#	Modification time:	15. 06. 2019 20:10

#	Program:	/corina/corina34_cracker 3.40 0067  02.08.2006

@<TRIPOS>MOLECULE
ASD01917996
  40   43    0    0    0
SMALL
NO_CHARGES


@<TRIPOS>ATOM
   1 N1             4.8214    -0.4095    -2.1413 N.ar    
   2 C2             5.2883     0.2880    -3.1580 C.ar    
   3 C3             5.1754     1.6682    -3.1841 C.ar    
   4 C4             4.5616     2.3167    -2.1224 C.ar    
   5 C5             4.0811     1.5478    -1.0672 C.ar    
   6 C6             4.2320     0.1693    -1.1140 C.ar    
   7 O7             3.4730     2.1386    -0.0052 O.3     
   8 C8             3.4532     3.4977     0.0444 C.2     
   9 N9             2.2017     5.5099    -0.0216 N.pl3   
  10 C10            2.2701     4.1541    -0.0651 C.2     
  11 C11            4.6526     4.1998     0.2133 C.2     
  12 C12            4.6242     5.5891     0.2630 C.2     
  13 C13            3.3315     6.2615     0.1356 C.2     
  14 C14            5.8640     6.3637     0.4400 C.2     
  15 N15            5.8167     7.7099     0.4858 N.am    
  16 C16            6.9732     8.4391     0.7587 C.ar    
  17 N17            8.1338     7.8115     0.8645 N.ar    
  18 C18            6.8969     9.8185     0.9114 C.ar    
  19 C19            8.0518    10.5313     1.1821 C.ar    
  20 C20            9.2497     9.8353     1.2912 C.ar    
  21 C21            9.2520     8.4625     1.1217 C.ar    
  22 O22            6.9306     5.7887     0.5448 O.2     
  23 N23            1.1385     6.4206    -0.1079 N.2     
  24 C24            1.6528     7.6236    -0.0113 C.2     
  25 N25            2.9679     7.5343     0.1411 N.2     
  26 C26           10.5478     7.7011     1.2322 C.3     
  27 F27            5.6574     2.3741    -4.2303 F       
  28 F28           10.4002    10.4929     1.5541 F       
  29 H29            5.7653    -0.2235    -3.9810 H       
  30 H30            4.4596     3.3919    -2.1150 H       
  31 H31            3.8620    -0.4363    -0.2998 H       
  32 H32            1.3612     3.5844    -0.1902 H       
  33 H33            5.5886     3.6687     0.3042 H       
  34 H34            4.9781     8.1714     0.3290 H       
  35 H35            5.9487    10.3275     0.8196 H       
  36 H36            8.0229    11.6039     1.3053 H       
  37 H37            1.0908     8.5454    -0.0425 H       
  38 H38           11.0194     7.6421     0.2513 H       
  39 H39           11.2136     8.2156     1.9251 H       
  40 H40           10.3477     6.6948     1.6003 H       
@<TRIPOS>BOND
   1    1    2 ar
   2    1    6 ar
   3    2    3 ar
   4    2   29 1
   5    3    4 ar
   6    3   27 1
   7    4    5 ar
   8    4   30 1
   9    5    6 ar
  10    5    7 1
  11    6   31 1
  12    7    8 1
  13    8   11 1
  14    8   10 2
  15    9   10 1
  16    9   23 1
  17    9   13 1
  18   10   32 1
  19   11   12 2
  20   11   33 1
  21   12   13 1
  22   12   14 1
  23   13   25 2
  24   14   15 am
  25   14   22 2
  26   15   16 1
  27   15   34 1
  28   16   18 ar
  29   16   17 ar
  30   17   21 ar
  31   18   19 ar
  32   18   35 1
  33   19   20 ar
  34   19   36 1
  35   20   21 ar
  36   20   28 1
  37   21   26 1
  38   23   24 2
  39   24   25 1
  40   24   37 1
  41   26   38 1
  42   26   39 1
  43   26   40 1

#	End of record

