#	Name: ASD04930011
#	Creating user name:	WinNT
#	Creation time:	15. 06. 2019 20:56

#	Modifying user name:	WinNT
#	Modification time:	15. 06. 2019 20:56

#	Program:	/corina/corina34_cracker 3.40 0067  02.08.2006

@<TRIPOS>MOLECULE
ASD04930011
  29   30    0    0    0
SMALL
NO_CHARGES


@<TRIPOS>ATOM
   1 C1            -0.3679     1.6799    -0.3049 C.ar    
   2 C2            -0.2951     0.3189    -0.5601 C.ar    
   3 C3            -1.3954    -0.4957    -0.3731 C.ar    
   4 C4            -2.5848     0.0529     0.0747 C.ar    
   5 C5            -2.6598     1.4374     0.3296 C.ar    
   6 C6            -1.5444     2.2453     0.1449 C.ar    
   7 N7            -3.7222    -0.7130     0.2918 N.am    
   8 C8            -4.9080    -0.1132     0.5165 C.2     
   9 O9            -5.0524     1.2250     0.4746 O.3     
  10 C10           -3.9573     1.9659     0.7931 C.2     
  11 O11           -4.0424     3.0025     1.4223 O.2     
  12 O12           -5.8780    -0.8021     0.7645 O.2     
  13 H13            0.5028     2.3010    -0.4547 H       
  14 C14           -3.6388    -2.0878     0.2771 C.2     
  15 C15           -4.7034    -2.8420    -0.1922 C.2     
  16 C16           -4.6890    -4.1932    -0.0592 C.2     
  17 C17           -3.5159    -4.8732     0.5984 C.3     
  18 C18           -5.8461    -5.0130    -0.5693 C.3     
  19 H19            0.6326    -0.1095    -0.9097 H       
  20 H20           -1.3279    -1.5544    -0.5754 H       
  21 H21           -1.5994     3.3054     0.3436 H       
  22 H22           -2.7440    -2.5783     0.6311 H       
  23 H23           -5.5441    -2.3547    -0.6635 H       
  24 H24           -3.6959    -4.9521     1.6705 H       
  25 H25           -3.3906    -5.8704     0.1766 H       
  26 H26           -2.6125    -4.2888     0.4238 H       
  27 H27           -6.5933    -4.3525    -1.0093 H       
  28 H28           -5.4901    -5.7133    -1.3249 H       
  29 H29           -6.2919    -5.5661     0.2574 H       
@<TRIPOS>BOND
   1    1    2 ar
   2    1   13 1
   3    1    6 ar
   4    2    3 ar
   5    2   19 1
   6    3    4 ar
   7    3   20 1
   8    4    5 ar
   9    4    7 1
  10    5    6 ar
  11    5   10 1
  12    6   21 1
  13    7    8 am
  14    7   14 1
  15    8    9 1
  16    8   12 2
  17    9   10 1
  18   10   11 2
  19   14   15 1
  20   14   22 1
  21   15   16 2
  22   15   23 1
  23   16   17 1
  24   16   18 1
  25   17   24 1
  26   17   25 1
  27   17   26 1
  28   18   27 1
  29   18   28 1
  30   18   29 1

#	End of record

