#	Name: ASD01028306
#	Creating user name:	WinNT
#	Creation time:	15. 06. 2019 18:56

#	Modifying user name:	WinNT
#	Modification time:	15. 06. 2019 18:56

#	Program:	/corina/corina34_cracker 3.40 0067  02.08.2006

@<TRIPOS>MOLECULE
ASD01028306
  43   47    0    0    0
SMALL
NO_CHARGES


@<TRIPOS>ATOM
   1 C1            -0.0165     1.3658     0.0096 C.ar    
   2 C2             0.0021    -0.0041     0.0020 C.ar    
   3 C3             1.1871     2.0786     0.0019 C.ar    
   4 N4             2.3453     1.4655    -0.0129 N.ar    
   5 C5             2.4265     0.1343    -0.0208 C.ar    
   6 C6             1.2509    -0.6527    -0.0134 C.ar    
   7 C7             3.6823    -0.5215    -0.0362 C.ar    
   8 C8             3.6925    -1.9066    -0.0433 C.ar    
   9 C9             2.4925    -2.6050    -0.0352 C.ar    
  10 N10            1.3341    -1.9873    -0.0204 N.ar    
  11 N11            4.8661     0.2018    -0.0444 N.pl3   
  12 C12            6.1526    -0.4989    -0.0603 C.3     
  13 C13            7.2733     0.5086    -0.0666 C.2     
  14 N14            7.8769     1.0364     1.0206 N.pl3   
  15 C15            8.8326     1.9008     0.5417 C.2     
  16 N16            8.7627     1.8552    -0.7787 N.2     
  17 N17            7.8416     1.0260    -1.1272 N.2     
  18 N18            7.7104     0.8696     2.3969 N.2     
  19 C19            8.4632     1.5350     3.2450 C.2     
  20 C20            9.4524     2.4298     2.7844 C.2     
  21 C21            9.6386     2.6122     1.4506 C.2     
  22 C22            8.2701     1.3432     4.7032 C.ar    
  23 C23            7.2958     0.4622     5.1688 C.ar    
  24 C24            7.1186     0.2861     6.5279 C.ar    
  25 C25            7.9088     0.9851     7.4283 C.ar    
  26 C26            8.8795     1.8627     6.9685 C.ar    
  27 C27            9.0664     2.0392     5.6107 C.ar    
  28 F28            9.6470     2.5415     7.8491 F       
  29 F29            6.1743    -0.5677     6.9801 F       
  30 O30           -1.2013     2.0306     0.0188 O.3     
  31 F31            7.7323     0.8111     8.7564 F       
  32 H32           -0.9171    -0.5710     0.0081 H       
  33 H33            1.1613     3.1582     0.0079 H       
  34 H34            4.6307    -2.4414    -0.0554 H       
  35 H35            2.5125    -3.6848    -0.0412 H       
  36 H36            4.8421     1.1715    -0.0396 H       
  37 H37            6.2346    -1.1281     0.8259 H       
  38 H38            6.2171    -1.1197    -0.9539 H       
  39 H39           10.0628     2.9700     3.4929 H       
  40 H40           10.3941     3.2958     1.0924 H       
  41 H41            6.6797    -0.0819     4.4682 H       
  42 H42            9.8225     2.7226     5.2534 H       
  43 H43           -1.5401     2.2182     0.9048 H       
@<TRIPOS>BOND
   1    1    2 ar
   2    1    3 ar
   3    1   30 1
   4    2    6 ar
   5    2   32 1
   6    3    4 ar
   7    3   33 1
   8    4    5 ar
   9    5    6 ar
  10    5    7 ar
  11    6   10 ar
  12    7    8 ar
  13    7   11 1
  14    8    9 ar
  15    8   34 1
  16    9   10 ar
  17    9   35 1
  18   11   12 1
  19   11   36 1
  20   12   13 1
  21   12   37 1
  22   12   38 1
  23   13   14 1
  24   13   17 2
  25   14   15 1
  26   14   18 1
  27   15   16 2
  28   15   21 1
  29   16   17 1
  30   18   19 2
  31   19   20 1
  32   19   22 1
  33   20   21 2
  34   20   39 1
  35   21   40 1
  36   22   23 ar
  37   22   27 ar
  38   23   24 ar
  39   23   41 1
  40   24   25 ar
  41   24   29 1
  42   25   26 ar
  43   25   31 1
  44   26   27 ar
  45   26   28 1
  46   27   42 1
  47   30   43 1

#	End of record

