#	Name: ASD01882064
#	Creating user name:	WinNT
#	Creation time:	15. 06. 2019 19:43

#	Modifying user name:	WinNT
#	Modification time:	15. 06. 2019 19:43

#	Program:	/corina/corina34_cracker 3.40 0067  02.08.2006

@<TRIPOS>MOLECULE
ASD01882064
  60   63    0    0    0
SMALL
NO_CHARGES


@<TRIPOS>ATOM
   1 C1            -0.0161     1.3337     0.0094 C.2     
   2 N2             0.0021    -0.0041     0.0020 N.am    
   3 C3             1.2613    -0.4841    -0.0126 C.2     
   4 C4             2.1640     0.7337    -0.0147 C.3     
   5 N5             1.2200     1.8645     0.0004 N.am    
   6 O6            -1.0354     1.9955     0.0180 O.2     
   7 O7             1.6013    -1.6477    -0.0215 O.2     
   8 C8             3.0460     0.7520     1.2354 C.3     
   9 C9             3.0220     0.7655    -1.2811 C.3     
  10 C10            1.5609     3.2893     0.0041 C.3     
  11 C11            1.6916     3.7708     1.4261 C.ar    
  12 C12            2.9179     3.7119     2.0635 C.ar    
  13 C13            3.0436     4.1515     3.3656 C.ar    
  14 C14            1.9317     4.6556     4.0386 C.ar    
  15 C15            0.6985     4.7125     3.3911 C.ar    
  16 C16            0.5860     4.2753     2.0870 C.ar    
  17 C17            2.1296     6.5463     9.4228 C.2     
  18 N18            0.8532     6.9185     9.6195 N.am    
  19 C19            0.0906     6.6569     8.3935 C.3     
  20 C20            1.0684     6.0704     7.4058 C.ar    
  21 C21            0.9454     5.6335     6.1100 C.ar    
  22 C22            2.0602     5.1290     5.4378 C.ar    
  23 C23            3.2953     5.0703     6.0844 C.ar    
  24 C24            3.4183     5.5084     7.3833 C.ar    
  25 C25            2.3036     6.0140     8.0586 C.ar    
  26 O26            3.0156     6.6401    10.2499 O.2     
  27 C27            0.3121     7.4904    10.8550 C.3     
  28 C28            0.5051     6.4981    12.0035 C.3     
  29 C29            1.0461     8.7934    11.1780 C.3     
  30 C30           -1.1986    -0.8435     0.0097 C.3     
  31 C31           -1.6309    -1.1284    -1.4300 C.3     
  32 H32            3.6824    -0.1329     1.2441 H       
  33 H33            3.6682     1.6470     1.2280 H       
  34 H34            2.4158     0.7550     2.1247 H       
  35 H35            2.3749     0.7780    -2.1581 H       
  36 H36            3.6443     1.6604    -1.2759 H       
  37 H37            3.6580    -0.1191    -1.3114 H       
  38 H38            2.5060     3.4381    -0.5182 H       
  39 H39            0.7749     3.8522    -0.4994 H       
  40 H40            3.7786     3.3209     1.5412 H       
  41 H41            4.0014     4.1047     3.8624 H       
  42 H42           -0.1663     5.1021     3.9076 H       
  43 H43           -0.3679     4.3233     1.5828 H       
  44 H44           -0.7104     5.9457     8.5952 H       
  45 H45           -0.3229     7.5872     8.0040 H       
  46 H46           -0.0116     5.6802     5.6117 H       
  47 H47            4.1573     4.6796     5.5640 H       
  48 H48            4.3757     5.4612     7.8808 H       
  49 H49           -0.7508     7.6945    10.7258 H       
  50 H50            1.5680     6.2940    12.1326 H       
  51 H51            0.1025     6.9236    12.9227 H       
  52 H52           -0.0178     5.5698    11.7734 H       
  53 H53            0.9087     9.5003    10.3598 H       
  54 H54            0.6435     9.2189    12.0972 H       
  55 H55            2.1090     8.5893    11.3071 H       
  56 H56           -0.9814    -1.7836     0.5167 H       
  57 H57           -2.0011    -0.3248     0.5342 H       
  58 H58           -2.5242    -1.7530    -1.4242 H       
  59 H59           -1.8481    -0.1883    -1.9370 H       
  60 H60           -0.8283    -1.6471    -1.9544 H       
@<TRIPOS>BOND
   1    1    2 am
   2    1    5 am
   3    1    6 2
   4    2    3 am
   5    2   30 1
   6    3    4 1
   7    3    7 2
   8    4    5 1
   9    4    8 1
  10    4    9 1
  11    5   10 1
  12    8   32 1
  13    8   33 1
  14    8   34 1
  15    9   35 1
  16    9   36 1
  17    9   37 1
  18   10   11 1
  19   10   38 1
  20   10   39 1
  21   11   12 ar
  22   11   16 ar
  23   12   13 ar
  24   12   40 1
  25   13   14 ar
  26   13   41 1
  27   14   15 ar
  28   14   22 1
  29   15   16 ar
  30   15   42 1
  31   16   43 1
  32   17   18 am
  33   17   25 1
  34   17   26 2
  35   18   19 1
  36   18   27 1
  37   19   20 1
  38   19   44 1
  39   19   45 1
  40   20   21 ar
  41   20   25 ar
  42   21   22 ar
  43   21   46 1
  44   22   23 ar
  45   23   24 ar
  46   23   47 1
  47   24   25 ar
  48   24   48 1
  49   27   28 1
  50   27   29 1
  51   27   49 1
  52   28   50 1
  53   28   51 1
  54   28   52 1
  55   29   53 1
  56   29   54 1
  57   29   55 1
  58   30   31 1
  59   30   56 1
  60   30   57 1
  61   31   58 1
  62   31   59 1
  63   31   60 1

#	End of record

