#	Name: ASD03082435
#	Creating user name:	WinNT
#	Creation time:	15. 06. 2019 20:27

#	Modifying user name:	WinNT
#	Modification time:	15. 06. 2019 20:27

#	Program:	/corina/corina34_cracker 3.40 0067  02.08.2006

@<TRIPOS>MOLECULE
ASD03082435
  41   43    0    0    0
SMALL
NO_CHARGES


@<TRIPOS>ATOM
   1 C1             1.1637     3.4983     0.0203 C.ar    
   2 C2             0.0599     4.1856    -0.4707 C.ar    
   3 C3             0.0415     5.5665    -0.4530 C.ar    
   4 C4             1.1197     6.2683     0.0526 C.ar    
   5 C5             2.2245     5.5875     0.5442 C.ar    
   6 N6             1.1828     2.1016     0.0021 N.pl3   
   7 C7             2.3985     1.4202    -0.1188 C.2     
   8 C8             2.5741     0.0278    -0.0419 C.2     
   9 N9             3.5714     1.9703    -0.3293 N.2     
  10 N10            4.5294     0.9499    -0.3875 N.pl3   
  11 C11            3.8897    -0.2352    -0.2078 C.2     
  12 C12            5.9011     1.1206    -0.5970 C.ar    
  13 C13            6.8285     0.2904     0.0292 C.ar    
  14 C14            6.3761     2.1221    -1.4421 C.ar    
  15 C15            7.7371     2.2577    -1.6223 C.ar    
  16 N16            8.5843     1.4547    -1.0068 N.ar    
  17 C17            8.1738     0.4917    -0.2038 C.ar    
  18 C18            8.2630     3.3363    -2.5340 C.3     
  19 H19            8.8999    -0.1439     0.2813 H       
  20 C20            2.2494     4.2018     0.5235 C.ar    
  21 O21            3.2837     6.2791     1.0408 O.3     
  22 C22            3.1919     7.7051     1.0258 C.3     
  23 F23            2.0892     8.1094     1.7859 F       
  24 F24            4.3588     8.2532     1.5690 F       
  25 F25            3.0379     8.1487    -0.2920 F       
  26 C26            4.5317    -1.5985    -0.1951 C.3     
  27 O27            3.5303    -2.5946     0.0212 O.3     
  28 H28           -0.7837     3.6397    -0.8666 H       
  29 H29           -0.8168     6.0990    -0.8353 H       
  30 H30            1.1024     7.3481     0.0647 H       
  31 H31            0.3530     1.6042     0.0732 H       
  32 H32            1.7957    -0.7028     0.1215 H       
  33 H33            6.4992    -0.4995     0.6880 H       
  34 H34            5.6881     2.7824    -1.9492 H       
  35 H35            8.4300     4.2478    -1.9600 H       
  36 H36            9.2030     3.0097    -2.9788 H       
  37 H37            7.5364     3.5317    -3.3227 H       
  38 H38            3.1084     3.6703     0.9057 H       
  39 H39            5.0221    -1.7781    -1.1519 H       
  40 H40            5.2696    -1.6452     0.6058 H       
  41 H41            3.8727    -3.4988     0.0413 H       
@<TRIPOS>BOND
   1    1    2 ar
   2    1    6 1
   3    1   20 ar
   4    2    3 ar
   5    2   28 1
   6    3    4 ar
   7    3   29 1
   8    4    5 ar
   9    4   30 1
  10    5   20 ar
  11    5   21 1
  12    6    7 1
  13    6   31 1
  14    7    8 1
  15    7    9 2
  16    8   11 2
  17    8   32 1
  18    9   10 1
  19   10   11 1
  20   10   12 1
  21   11   26 1
  22   12   13 ar
  23   12   14 ar
  24   13   17 ar
  25   13   33 1
  26   14   15 ar
  27   14   34 1
  28   15   16 ar
  29   15   18 1
  30   16   17 ar
  31   17   19 1
  32   18   35 1
  33   18   36 1
  34   18   37 1
  35   20   38 1
  36   21   22 1
  37   22   23 1
  38   22   24 1
  39   22   25 1
  40   26   27 1
  41   26   39 1
  42   26   40 1
  43   27   41 1

#	End of record

