#	Name: ASD04430062
#	Creating user name:	WinNT
#	Creation time:	15. 06. 2019 20:49

#	Modifying user name:	WinNT
#	Modification time:	15. 06. 2019 20:49

#	Program:	/corina/corina34_cracker 3.40 0067  02.08.2006

@<TRIPOS>MOLECULE
ASD04430062
  36   38    0    0    0
SMALL
NO_CHARGES


@<TRIPOS>ATOM
   1 C1            -0.0156     1.2968     0.0092 C.2     
   2 N2             0.0021    -0.0041     0.0020 N.2     
   3 C3             1.1509    -0.6971    -0.0127 C.2     
   4 C4             2.3704    -0.0012    -0.0207 C.2     
   5 C5             2.3293     1.4610    -0.0120 C.2     
   6 N6             1.1117     2.0522     0.0025 N.am    
   7 N7             2.8554    -2.1474    -0.0368 N.2     
   8 N8             1.4605    -2.0224    -0.0228 N.pl3   
   9 C9             3.3995    -0.9612    -0.0357 C.2     
  10 O10            3.3528     2.1220    -0.0179 O.2     
  11 C11           -1.3499     1.9972     0.0192 C.3     
  12 C12           -2.4719     0.9571     0.0188 C.3     
  13 C13           -3.8222     1.6635     0.1546 C.3     
  14 C14           -2.4376     0.1704    -1.2930 C.3     
  15 F15           -3.9996     2.5412    -0.9202 F       
  16 F16           -4.8482     0.7124     0.1543 F       
  17 F17           -3.8536     2.3828     1.3541 F       
  18 C18            0.5416    -3.0800    -0.0190 C.ar    
  19 C19            0.9927    -4.3946    -0.0304 C.ar    
  20 C20            0.0833    -5.4352    -0.0261 C.ar    
  21 C21           -1.2738    -5.1690    -0.0109 C.ar    
  22 C22           -1.7250    -3.8622     0.0001 C.ar    
  23 C23           -0.8213    -2.8173     0.0021 C.ar    
  24 Cl24           2.6960    -4.7290    -0.0507 Cl      
  25 H25            1.0447     3.0198     0.0080 H       
  26 H26            4.4590    -0.7519    -0.0451 H       
  27 H27           -1.4286     2.6162     0.9129 H       
  28 H28           -1.4369     2.6259    -0.8670 H       
  29 H29           -2.3337     0.2732     0.8563 H       
  30 H30           -1.4756    -0.3329    -1.3898 H       
  31 H31           -3.2370    -0.5706    -1.2933 H       
  32 H32           -2.5758     0.8542    -2.1305 H       
  33 H33            0.4326    -6.4571    -0.0350 H       
  34 H34           -1.9826    -5.9838    -0.0079 H       
  35 H35           -2.7855    -3.6580     0.0113 H       
  36 H36           -1.1749    -1.7969     0.0156 H       
@<TRIPOS>BOND
   1    1    2 2
   2    1    6 1
   3    1   11 1
   4    2    3 1
   5    3    4 2
   6    3    8 1
   7    4    5 1
   8    4    9 1
   9    5    6 am
  10    5   10 2
  11    6   25 1
  12    7    8 1
  13    7    9 2
  14    8   18 1
  15    9   26 1
  16   11   12 1
  17   11   27 1
  18   11   28 1
  19   12   13 1
  20   12   14 1
  21   12   29 1
  22   13   15 1
  23   13   16 1
  24   13   17 1
  25   14   30 1
  26   14   31 1
  27   14   32 1
  28   18   19 ar
  29   18   23 ar
  30   19   20 ar
  31   19   24 1
  32   20   21 ar
  33   20   33 1
  34   21   22 ar
  35   21   34 1
  36   22   23 ar
  37   22   35 1
  38   23   36 1

#	End of record

