#	Name: ASD02508070
#	Creating user name:	WinNT
#	Creation time:	15. 06. 2019 20:23

#	Modifying user name:	WinNT
#	Modification time:	15. 06. 2019 20:23

#	Program:	/corina/corina34_cracker 3.40 0067  02.08.2006

@<TRIPOS>MOLECULE
ASD02508070
  34   36    0    0    0
SMALL
NO_CHARGES


@<TRIPOS>ATOM
   1 C1             3.8140    -0.8885    -4.1344 C.ar    
   2 C2             4.7686    -1.5016    -3.3380 C.ar    
   3 C3             2.7642    -0.1800    -3.5503 C.ar    
   4 C4             2.6777    -0.0907    -2.1701 C.ar    
   5 C5             3.6349    -0.7059    -1.3768 C.ar    
   6 C6             4.6800    -1.4106    -1.9632 C.ar    
   7 N7             3.6359    -0.7965    -5.5171 N.am    
   8 C8             2.5230    -0.0678    -5.7337 C.2     
   9 O9             1.9965     0.3053    -4.5567 O.3     
  10 N10            3.5487    -0.6165     0.0166 N.am    
  11 S11            3.7393    -1.9733     0.9468 S.o2    
  12 C12            2.4300    -3.0774     0.5329 C.ar    
  13 C13            1.1173    -2.7394     0.8287 C.ar    
  14 O14            2.0686     0.2119    -6.8264 O.2     
  15 O15            4.9407    -2.5938     0.5099 O.2     
  16 O16            3.5161    -1.5724     2.2917 O.2     
  17 C17            2.7093    -4.2775    -0.0913 C.ar    
  18 C18            1.6814    -5.1448    -0.4169 C.ar    
  19 C19            0.3723    -4.8122    -0.1177 C.ar    
  20 C20            0.0884    -3.6103     0.5019 C.ar    
  21 Cl21           2.0349    -6.6520    -1.2024 Cl      
  22 O22            0.8399    -1.5567     1.4382 O.3     
  23 C23           -0.5193    -1.3226     1.8122 C.3     
  24 H24            5.5804    -2.0500    -3.7924 H       
  25 H25            1.8668     0.4571    -1.7131 H       
  26 H26            5.4234    -1.8883    -1.3423 H       
  27 H27            4.2086    -1.1854    -6.1966 H       
  28 H28            3.3774     0.2403     0.4380 H       
  29 H29            3.7307    -4.5389    -0.3257 H       
  30 H30           -0.4286    -5.4903    -0.3726 H       
  31 H31           -0.9337    -3.3511     0.7357 H       
  32 H32           -1.1590    -1.4171     0.9347 H       
  33 H33           -0.8208    -2.0537     2.5622 H       
  34 H34           -0.6147    -0.3182     2.2249 H       
@<TRIPOS>BOND
   1    1    2 ar
   2    1    3 ar
   3    1    7 1
   4    2    6 ar
   5    2   24 1
   6    3    4 ar
   7    3    9 1
   8    4    5 ar
   9    4   25 1
  10    5    6 ar
  11    5   10 1
  12    6   26 1
  13    7    8 am
  14    7   27 1
  15    8    9 1
  16    8   14 2
  17   10   11 am
  18   10   28 1
  19   11   12 1
  20   11   15 2
  21   11   16 2
  22   12   13 ar
  23   12   17 ar
  24   13   22 1
  25   13   20 ar
  26   17   18 ar
  27   17   29 1
  28   18   19 ar
  29   18   21 1
  30   19   20 ar
  31   19   30 1
  32   20   31 1
  33   22   23 1
  34   23   32 1
  35   23   33 1
  36   23   34 1

#	End of record

