#	Name: ASD03540548
#	Creating user name:	WinNT
#	Creation time:	15. 06. 2019 20:43

#	Modifying user name:	WinNT
#	Modification time:	15. 06. 2019 20:43

#	Program:	/corina/corina34_cracker 3.40 0067  02.08.2006

@<TRIPOS>MOLECULE
ASD03540548
  53   56    0    0    0
SMALL
NO_CHARGES


@<TRIPOS>ATOM
   1 N1            -0.0161     1.3396     0.0094 N.am    
   2 C2             0.0021    -0.0041     0.0020 C.2     
   3 N3             1.1390    -0.7172    -0.0122 N.am    
   4 C4             2.3459    -0.1106    -0.0200 C.2     
   5 C5             2.3857     1.3633    -0.0129 C.ar    
   6 C6             3.5871     2.0607    -0.0197 C.ar    
   7 C7             3.5659     3.4548    -0.0121 C.ar    
   8 C8             2.3437     4.1382     0.0023 C.ar    
   9 C9             1.1622     3.4519     0.0094 C.ar    
  10 C10            1.1637     2.0628     0.0020 C.ar    
  11 C11            4.8337     4.2115    -0.0186 C.2     
  12 O12            5.8952     3.6190    -0.0307 O.2     
  13 N13            4.8141     5.5591    -0.0113 N.am    
  14 C14            6.0721     6.3100    -0.0178 C.3     
  15 C15            5.6474     8.4672     1.1893 C.ar    
  16 C16            5.7753     7.7874    -0.0074 C.ar    
  17 C17            5.6275     8.4821    -1.1980 C.ar    
  18 C18            5.3554     9.8406    -1.1401 C.ar    
  19 C19            5.2414    10.4525     0.0936 C.ar    
  20 N20            5.3878     9.7598     1.2063 N.ar    
  21 O21            3.3721    -0.7626    -0.0320 O.2     
  22 O22           -1.0576    -0.5997     0.0089 O.2     
  23 C23            1.0697    -2.1806    -0.0189 C.3     
  24 C24            1.0327    -2.6752    -1.4420 C.ar    
  25 C25            2.2115    -2.9584    -2.1058 C.ar    
  26 C26            2.1772    -3.4132    -3.4129 C.ar    
  27 C27            0.9615    -3.5838    -4.0538 C.ar    
  28 C28           -0.2156    -3.2999    -3.3882 C.ar    
  29 C29           -0.1803    -2.8508    -2.0810 C.ar    
  30 F30            3.3288    -3.6900    -4.0628 F       
  31 C31           -1.2992     2.0466     0.0193 C.3     
  32 C32           -1.7391     2.2849     1.4652 C.3     
  33 H33            4.5271     1.5290    -0.0304 H       
  34 H34            2.3349     5.2181     0.0081 H       
  35 H35            0.2260     3.9901     0.0212 H       
  36 H36            3.9672     6.0319    -0.0017 H       
  37 H37            6.6548     6.0502     0.8660 H       
  38 H38            6.6399     6.0598    -0.9139 H       
  39 H39            5.7567     7.9325     2.1213 H       
  40 H40            5.7224     7.9772    -2.1480 H       
  41 H41            5.2344    10.4132    -2.0477 H       
  42 H42            5.0296    11.5102     0.1473 H       
  43 H43            1.9463    -2.5881     0.4847 H       
  44 H44            0.1684    -2.5041     0.5017 H       
  45 H45            3.1590    -2.8247    -1.6051 H       
  46 H46            0.9336    -3.9381    -5.0736 H       
  47 H47           -1.1638    -3.4329    -3.8879 H       
  48 H48           -1.1011    -2.6335    -1.5601 H       
  49 H49           -1.1903     3.0042    -0.4899 H       
  50 H50           -2.0494     1.4453    -0.4943 H       
  51 H51           -1.8480     1.3273     1.9743 H       
  52 H52           -0.9889     2.8862     1.9788 H       
  53 H53           -2.6937     2.8110     1.4725 H       
@<TRIPOS>BOND
   1    1    2 am
   2    1   10 1
   3    1   31 1
   4    2    3 am
   5    2   22 2
   6    3    4 am
   7    3   23 1
   8    4    5 1
   9    4   21 2
  10    5    6 ar
  11    5   10 ar
  12    6    7 ar
  13    6   33 1
  14    7    8 ar
  15    7   11 1
  16    8    9 ar
  17    8   34 1
  18    9   10 ar
  19    9   35 1
  20   11   12 2
  21   11   13 am
  22   13   14 1
  23   13   36 1
  24   14   16 1
  25   14   37 1
  26   14   38 1
  27   15   16 ar
  28   15   20 ar
  29   15   39 1
  30   16   17 ar
  31   17   18 ar
  32   17   40 1
  33   18   19 ar
  34   18   41 1
  35   19   20 ar
  36   19   42 1
  37   23   24 1
  38   23   43 1
  39   23   44 1
  40   24   25 ar
  41   24   29 ar
  42   25   26 ar
  43   25   45 1
  44   26   27 ar
  45   26   30 1
  46   27   28 ar
  47   27   46 1
  48   28   29 ar
  49   28   47 1
  50   29   48 1
  51   31   32 1
  52   31   49 1
  53   31   50 1
  54   32   51 1
  55   32   52 1
  56   32   53 1

#	End of record

