#	Name: ASD07930899
#	Creating user name:	WinNT
#	Creation time:	15. 06. 2019 21:13

#	Modifying user name:	WinNT
#	Modification time:	15. 06. 2019 21:13

#	Program:	/corina/corina34_cracker 3.40 0067  02.08.2006

@<TRIPOS>MOLECULE
ASD07930899
  58   62    0    0    0
SMALL
NO_CHARGES


@<TRIPOS>ATOM
   1 N1            -0.0156     1.2970     0.0092 N.2     
   2 C2             0.0021    -0.0041     0.0020 C.2     
   3 N3             1.1480    -0.7297    -0.0124 N.am    
   4 C4             2.3519    -0.1117    -0.0201 C.2     
   5 C5             2.3587     1.3569    -0.0128 C.ar    
   6 C6             3.5563     2.0887    -0.0204 C.ar    
   7 C7             3.5523     3.4430    -0.0140 C.ar    
   8 C8             2.3428     4.1689     0.0006 C.ar    
   9 C9             1.1059     3.4790     0.0087 C.ar    
  10 C10            1.1175     2.0190     0.0022 C.ar    
  11 C11           -0.0902     4.2034     0.0237 C.ar    
  12 C12           -0.0542     5.5674     0.0302 C.ar    
  13 C13            1.1589     6.2482     0.0222 C.ar    
  14 C14            2.3424     5.5722     0.0077 C.ar    
  15 O15            3.3897    -0.7488    -0.0323 O.2     
  16 C16            4.8626     4.1874    -0.0220 C.3     
  17 C17            6.0183     3.6658     2.1421 C.ar    
  18 C18            5.2506     4.5366     1.3917 C.ar    
  19 C19            4.8427     5.7353     1.9559 C.ar    
  20 C20            5.2238     6.0147     3.2596 C.ar    
  21 C21            5.9921     5.0955     3.9482 C.ar    
  22 N22            6.3618     3.9644     3.3796 N.ar    
  23 S23            6.4831     5.4382     5.6053 S.o2    
  24 O24            7.6789     4.6904     5.7783 O.2     
  25 O25            6.4886     6.8571     5.6828 O.2     
  26 C26            5.1491     4.7502     6.6241 C.3     
  27 C27            1.0819    -2.1932    -0.0191 C.3     
  28 C28            0.3502    -2.6765     1.2346 C.3     
  29 C29            0.2811    -4.2049     1.2276 C.3     
  30 C30           -0.4741    -4.6756    -0.0170 C.3     
  31 C31            0.2577    -4.1923    -1.2708 C.3     
  32 C32            0.3267    -2.6639    -1.2637 C.3     
  33 O33            1.0555    -2.2369     2.3970 O.3     
  34 H34           -0.9405    -0.5313     0.0082 H       
  35 H35            4.4990     1.5619    -0.0312 H       
  36 H36           -1.0381     3.6857     0.0296 H       
  37 H37           -0.9788     6.1253     0.0414 H       
  38 H38            1.1630     7.3282     0.0273 H       
  39 H39            3.2763     6.1145     0.0020 H       
  40 H40            5.6346     3.5592    -0.4661 H       
  41 H41            4.7575     5.1016    -0.6063 H       
  42 H42            6.3364     2.7279     1.7114 H       
  43 H43            4.2426     6.4352     1.3933 H       
  44 H44            4.9242     6.9392     3.7307 H       
  45 H45            5.0650     3.6796     6.4378 H       
  46 H46            5.3724     4.9193     7.6775 H       
  47 H47            4.2085     5.2384     6.3692 H       
  48 H48            2.0921    -2.6025    -0.0307 H       
  49 H49           -0.6600    -2.2672     1.2462 H       
  50 H50            1.2913    -4.6142     1.2160 H       
  51 H51           -0.2402    -4.5492     2.1208 H       
  52 H52           -0.5232    -5.7645    -0.0220 H       
  53 H53           -1.4842    -4.2663    -0.0055 H       
  54 H54            1.2679    -4.6016    -1.2823 H       
  55 H55           -0.2803    -4.5276    -2.1574 H       
  56 H56           -0.6835    -2.2546    -1.2522 H       
  57 H57            0.8480    -2.3196    -2.1569 H       
  58 H58            0.6474    -2.5079     3.2307 H       
@<TRIPOS>BOND
   1    1    2 2
   2    1   10 1
   3    2    3 1
   4    2   34 1
   5    3    4 am
   6    3   27 1
   7    4    5 1
   8    4   15 2
   9    5    6 ar
  10    5   10 ar
  11    6    7 ar
  12    6   35 1
  13    7    8 ar
  14    7   16 1
  15    8    9 ar
  16    8   14 ar
  17    9   10 ar
  18    9   11 ar
  19   11   12 ar
  20   11   36 1
  21   12   13 ar
  22   12   37 1
  23   13   14 ar
  24   13   38 1
  25   14   39 1
  26   16   18 1
  27   16   40 1
  28   16   41 1
  29   17   18 ar
  30   17   22 ar
  31   17   42 1
  32   18   19 ar
  33   19   20 ar
  34   19   43 1
  35   20   21 ar
  36   20   44 1
  37   21   22 ar
  38   21   23 1
  39   23   24 2
  40   23   25 2
  41   23   26 1
  42   26   45 1
  43   26   46 1
  44   26   47 1
  45   27   28 1
  46   27   32 1
  47   27   48 1
  48   28   29 1
  49   28   33 1
  50   28   49 1
  51   29   30 1
  52   29   50 1
  53   29   51 1
  54   30   31 1
  55   30   52 1
  56   30   53 1
  57   31   32 1
  58   31   54 1
  59   31   55 1
  60   32   56 1
  61   32   57 1
  62   33   58 1

#	End of record

