#	Name: ASD01200296
#	Creating user name:	WinNT
#	Creation time:	15. 06. 2019 19:08

#	Modifying user name:	WinNT
#	Modification time:	15. 06. 2019 19:08

#	Program:	/corina/corina34_cracker 3.40 0067  02.08.2006

@<TRIPOS>MOLECULE
ASD01200296
  72   73    0    0    0
SMALL
NO_CHARGES


@<TRIPOS>ATOM
   1 C1            -0.0173     1.3824    -0.0021 C.ar    
   2 C2             0.0013    -0.0048    -0.0065 C.ar    
   3 C3            -1.1883    -0.7185     0.0080 C.ar    
   4 C4            -2.4002    -0.0483     0.0265 C.ar    
   5 C5            -2.4235     1.3469     0.0310 C.ar    
   6 C6            -1.2246     2.0608     0.0226 C.ar    
   7 O7             1.1510     2.0767    -0.0163 O.3     
   8 C8             2.3590     1.3136    -0.0355 C.3     
   9 C9             3.5604     2.2608    -0.0495 C.3     
  10 C10            3.5319     3.1392     1.2029 C.3     
  11 O11           -1.1644    -2.0774     0.0035 O.3     
  12 C12           -3.7146     2.0666     0.0503 C.2     
  13 N13           -3.7349     3.4142     0.0547 N.am    
  14 O14           -4.7579     1.4431     0.0622 O.2     
  15 C15           -4.9447     4.0909    -0.0359 C.ar    
  16 N16           -6.0637     3.4054    -0.2239 N.ar    
  17 C17           -4.9643     5.4790     0.0779 C.ar    
  18 C18           -7.2330     4.0027    -0.3159 C.ar    
  19 C19           -7.3281     5.3948    -0.2171 C.ar    
  20 C20           -6.1577     6.1442    -0.0117 C.ar    
  21 C21           -8.6330     6.0627    -0.3207 C.2     
  22 C22            4.8538     1.4438    -0.0700 C.3     
  23 C23            3.4970     3.1467    -1.2953 C.3     
  24 O24            5.9760     2.3284    -0.0831 O.3     
  25 C25            7.2405     1.6631    -0.1028 C.3     
  26 C26           -9.7527     5.3316    -0.5128 C.2     
  27 C27          -11.0117     5.9759    -0.6127 C.2     
  28 O28          -12.1299     5.2457    -0.8046 O.3     
  29 O29          -11.0837     7.1871    -0.5255 O.2     
  30 C30            0.1199    -2.7036    -0.0163 C.3     
  31 C31           -0.0539    -4.2237    -0.0185 C.3     
  32 C32            1.3212    -4.8942    -0.0397 C.3     
  33 C33           -0.8108    -4.6523     1.2402 C.3     
  34 C34           -0.8458    -4.6448    -1.2580 C.3     
  35 O35            1.1589    -6.3140    -0.0417 O.3     
  36 C36            2.3898    -7.0396    -0.0612 C.3     
  37 H37            0.9445    -0.5306    -0.0217 H       
  38 H38           -3.3258    -0.6046     0.0370 H       
  39 H39           -1.2381     3.1407     0.0264 H       
  40 H40            2.4042     0.6825     0.8520 H       
  41 H41            2.3793     0.6878    -0.9278 H       
  42 H42            3.5771     2.5081     2.0905 H       
  43 H43            4.3879     3.8140     1.1930 H       
  44 H44            2.6105     3.7213     1.2176 H       
  45 H45           -2.9047     3.9116     0.1210 H       
  46 H46           -4.0464     6.0257     0.2356 H       
  47 H47           -8.1252     3.4138    -0.4692 H       
  48 H48           -6.1977     7.2204     0.0693 H       
  49 H49           -8.6970     7.1380    -0.2432 H       
  50 H50            4.8990     0.8126     0.8175 H       
  51 H51            4.8741     0.8180    -0.9623 H       
  52 H52            2.5756     3.7288    -1.2806 H       
  53 H53            4.3529     3.8215    -1.3052 H       
  54 H54            3.5173     2.5210    -2.1875 H       
  55 H55            7.3352     1.0365     0.7841 H       
  56 H56            7.3103     1.0419    -0.9957 H       
  57 H57            8.0405     2.4034    -0.1117 H       
  58 H58           -9.6887     4.2563    -0.5903 H       
  59 H59          -12.9390     5.7724    -0.8599 H       
  60 H60            0.6592    -2.3983    -0.9130 H       
  61 H61            0.6841    -2.4037     0.8668 H       
  62 H62            1.8605    -4.5889    -0.9364 H       
  63 H63            1.8854    -4.5942     0.8433 H       
  64 H64           -1.7905    -4.1746     1.2553 H       
  65 H65           -0.9346    -5.7352     1.2387 H       
  66 H66           -0.2467    -4.3523     2.1233 H       
  67 H67           -0.3065    -4.3394    -2.1547 H       
  68 H68           -0.9696    -5.7277    -1.2596 H       
  69 H69           -1.8254    -4.1671    -1.2429 H       
  70 H70            2.1809    -8.1094    -0.0615 H       
  71 H71            2.9512    -6.7788    -0.9583 H       
  72 H72            2.9761    -6.7842     0.8215 H       
@<TRIPOS>BOND
   1    1    2 ar
   2    1    7 1
   3    1    6 ar
   4    2    3 ar
   5    2   37 1
   6    3    4 ar
   7    3   11 1
   8    4    5 ar
   9    4   38 1
  10    5    6 ar
  11    5   12 1
  12    6   39 1
  13    7    8 1
  14    8    9 1
  15    8   40 1
  16    8   41 1
  17    9   10 1
  18    9   22 1
  19    9   23 1
  20   10   42 1
  21   10   43 1
  22   10   44 1
  23   11   30 1
  24   12   13 am
  25   12   14 2
  26   13   15 1
  27   13   45 1
  28   15   16 ar
  29   15   17 ar
  30   16   18 ar
  31   17   20 ar
  32   17   46 1
  33   18   19 ar
  34   18   47 1
  35   19   20 ar
  36   19   21 1
  37   20   48 1
  38   21   26 2
  39   21   49 1
  40   22   24 1
  41   22   50 1
  42   22   51 1
  43   23   52 1
  44   23   53 1
  45   23   54 1
  46   24   25 1
  47   25   55 1
  48   25   56 1
  49   25   57 1
  50   26   27 1
  51   26   58 1
  52   27   28 1
  53   27   29 2
  54   28   59 1
  55   30   31 1
  56   30   60 1
  57   30   61 1
  58   31   32 1
  59   31   33 1
  60   31   34 1
  61   32   35 1
  62   32   62 1
  63   32   63 1
  64   33   64 1
  65   33   65 1
  66   33   66 1
  67   34   67 1
  68   34   68 1
  69   34   69 1
  70   35   36 1
  71   36   70 1
  72   36   71 1
  73   36   72 1

#	End of record

