#	Name: ASD01882687
#	Creating user name:	WinNT
#	Creation time:	15. 06. 2019 19:45

#	Modifying user name:	WinNT
#	Modification time:	15. 06. 2019 19:45

#	Program:	/corina/corina34_cracker 3.40 0067  02.08.2006

@<TRIPOS>MOLECULE
ASD01882687
  41   42    0    0    0
SMALL
NO_CHARGES


@<TRIPOS>ATOM
   1 C1            -0.0184     1.5028     0.0103 C.3     
   2 C2             0.0021    -0.0041     0.0020 C.2     
   3 C3             0.1050    -0.7048    -1.2005 C.2     
   4 C4             0.1227    -2.0615    -1.1990 C.2     
   5 N5             0.0413    -2.7639    -0.0429 N.am    
   6 C6            -0.0595    -2.1373     1.1448 C.2     
   7 C7            -0.0757    -0.7189     1.1946 C.2     
   8 O8            -0.1321    -2.7862     2.1742 O.2     
   9 C9            -0.1819    -0.0351     2.4483 C.1     
  10 N10           -0.2661     0.5074     3.4429 N.1     
  11 C11            0.0628    -4.2281    -0.0859 C.3     
  12 C12            1.5084    -4.7199     0.0112 C.3     
  13 C13            1.5309    -6.2491    -0.0337 C.3     
  14 C14            1.0318    -6.7266    -1.3989 C.3     
  15 C15            2.9612    -6.7448     0.1883 C.3     
  16 C16            1.3954     2.0244    -0.0004 C.ar    
  17 C17            2.0324     2.2701    -1.2024 C.ar    
  18 C18            3.3293     2.7485    -1.2122 C.ar    
  19 C19            3.9890     2.9817    -0.0200 C.ar    
  20 C20            3.3517     2.7369     1.1820 C.ar    
  21 C21            2.0533     2.2626     1.1918 C.ar    
  22 H22           -0.5455     1.8639    -0.8728 H       
  23 H23           -0.5286     1.8543     0.9071 H       
  24 H24            0.1704    -0.1660    -2.1342 H       
  25 H25            0.2027    -2.5915    -2.1366 H       
  26 H26           -0.5128    -4.6247     0.7504 H       
  27 H27           -0.3752    -4.5705    -1.0234 H       
  28 H28            2.0841    -4.3234    -0.8251 H       
  29 H29            1.9465    -4.3775     0.9487 H       
  30 H30            0.8836    -6.6452     0.7487 H       
  31 H31            1.6791    -6.3306    -2.1813 H       
  32 H32            1.0478    -7.8160    -1.4309 H       
  33 H33            0.0128    -6.3734    -1.5571 H       
  34 H34            3.3169    -6.4047     1.1608 H       
  35 H35            2.9773    -7.8343     0.1562 H       
  36 H36            3.6086    -6.3488    -0.5942 H       
  37 H37            1.5170     2.0879    -2.1338 H       
  38 H38            3.8272     2.9397    -2.1513 H       
  39 H39            5.0025     3.3548    -0.0277 H       
  40 H40            3.8673     2.9187     2.1134 H       
  41 H41            1.5554     2.0713     2.1309 H       
@<TRIPOS>BOND
   1    1    2 1
   2    1   16 1
   3    1   22 1
   4    1   23 1
   5    2    3 1
   6    2    7 2
   7    3    4 2
   8    3   24 1
   9    4    5 1
  10    4   25 1
  11    5    6 am
  12    5   11 1
  13    6    7 1
  14    6    8 2
  15    7    9 1
  16    9   10 3
  17   11   12 1
  18   11   26 1
  19   11   27 1
  20   12   13 1
  21   12   28 1
  22   12   29 1
  23   13   14 1
  24   13   15 1
  25   13   30 1
  26   14   31 1
  27   14   32 1
  28   14   33 1
  29   15   34 1
  30   15   35 1
  31   15   36 1
  32   16   17 ar
  33   16   21 ar
  34   17   18 ar
  35   17   37 1
  36   18   19 ar
  37   18   38 1
  38   19   20 ar
  39   19   39 1
  40   20   21 ar
  41   20   40 1
  42   21   41 1

#	End of record

