#	Name: ASD01870149
#	Creating user name:	WinNT
#	Creation time:	15. 06. 2019 19:38

#	Modifying user name:	WinNT
#	Modification time:	15. 06. 2019 19:38

#	Program:	/corina/corina34_cracker 3.40 0067  02.08.2006

@<TRIPOS>MOLECULE
ASD01870149
  41   44    0    0    0
SMALL
NO_CHARGES


@<TRIPOS>ATOM
   1 C1            -0.1281     1.2461     0.2144 C.ar    
   2 C2            -0.1924    -0.1067    -0.1341 C.ar    
   3 C3             1.0547     1.7728     0.7426 C.ar    
   4 C4             2.1508     0.9585     0.9174 C.ar    
   5 C5             2.0829    -0.3866     0.5694 C.ar    
   6 C6             0.9081    -0.9144     0.0437 C.ar    
   7 N7             3.1980    -1.2099     0.7480 N.am    
   8 C8             3.2274    -2.2059     1.6420 C.2     
   9 C9             4.3227    -1.0709     0.0353 C.2     
  10 C10            5.3242    -2.1156     0.4770 C.3     
  11 C11            4.5740    -2.8931     1.5776 C.3     
  12 O12            4.5090    -0.2401    -0.8275 O.2     
  13 O13            2.3193    -2.5091     2.3856 O.2     
  14 C14            4.9765    -3.5927     0.2813 C.3     
  15 C15            3.8637    -3.9289    -0.7134 C.3     
  16 C16            6.1240    -4.6022     0.3518 C.3     
  17 C17           -1.3031     2.1166     0.0198 C.2     
  18 C18           -1.4400     3.3599     0.8066 C.ar    
  19 O19           -2.1589     1.8110    -0.7879 O.2     
  20 C20           -2.2436     4.4015     0.3381 C.ar    
  21 C21           -2.3673     5.5598     1.0771 C.ar    
  22 C22           -1.6972     5.6917     2.2802 C.ar    
  23 C23           -0.7707     3.4963     2.0249 C.ar    
  24 C24           -0.8979     4.6631     2.7513 C.ar    
  25 Cl25          -0.0607     4.8388     4.2619 Cl      
  26 H26           -1.1042    -0.5172    -0.5420 H       
  27 H27            1.1084     2.8171     1.0127 H       
  28 H28            3.0648     1.3646     1.3249 H       
  29 H29            0.8592    -1.9592    -0.2252 H       
  30 H30            6.3645    -1.8085     0.5848 H       
  31 H31            5.0473    -3.1724     2.5189 H       
  32 H32            3.3644    -3.0111    -1.0239 H       
  33 H33            4.2928    -4.4220    -1.5857 H       
  34 H34            3.1411    -4.5932    -0.2394 H       
  35 H35            5.8613    -5.4034     1.0425 H       
  36 H36            6.3015    -5.0203    -0.6391 H       
  37 H37            7.0269    -4.1020     0.7021 H       
  38 H38           -2.7669     4.3006    -0.6013 H       
  39 H39           -2.9886     6.3657     0.7155 H       
  40 H40           -1.7974     6.6008     2.8545 H       
  41 H41           -0.1512     2.6928     2.3952 H       
@<TRIPOS>BOND
   1    1    2 ar
   2    1    3 ar
   3    1   17 1
   4    2    6 ar
   5    2   26 1
   6    3    4 ar
   7    3   27 1
   8    4    5 ar
   9    4   28 1
  10    5    6 ar
  11    5    7 1
  12    6   29 1
  13    7    8 am
  14    7    9 am
  15    8   13 2
  16    8   11 1
  17    9   12 2
  18    9   10 1
  19   10   11 1
  20   10   14 1
  21   10   30 1
  22   11   14 1
  23   11   31 1
  24   14   15 1
  25   14   16 1
  26   15   32 1
  27   15   33 1
  28   15   34 1
  29   16   35 1
  30   16   36 1
  31   16   37 1
  32   17   18 1
  33   17   19 2
  34   18   20 ar
  35   18   23 ar
  36   20   21 ar
  37   20   38 1
  38   21   22 ar
  39   21   39 1
  40   22   24 ar
  41   22   40 1
  42   23   24 ar
  43   23   41 1
  44   24   25 1

#	End of record

