#	Name: ASD02500241
#	Creating user name:	WinNT
#	Creation time:	15. 06. 2019 20:22

#	Modifying user name:	WinNT
#	Modification time:	15. 06. 2019 20:22

#	Program:	/corina/corina34_cracker 3.40 0067  02.08.2006

@<TRIPOS>MOLECULE
ASD02500241
  57   60    0    0    0
SMALL
NO_CHARGES


@<TRIPOS>ATOM
   1 C1            -1.9651     4.1052    -0.4896 C.ar    
   2 C2            -0.8666     4.9416    -0.5415 C.ar    
   3 C3            -1.0118     6.2488    -0.9821 C.ar    
   4 C4            -2.2605     6.7131    -1.3696 C.ar    
   5 C5            -3.3556     5.8731    -1.3159 C.ar    
   6 C6            -3.2083     4.5703    -0.8762 C.ar    
   7 S7            -1.7802     2.4424     0.0630 S.o2    
   8 O8            -2.9207     1.7351    -0.4041 O.2     
   9 O9            -0.4475     2.0614    -0.2499 O.2     
  10 N10           -1.8856     2.4604     1.7156 N.am    
  11 C11           -0.9490     3.1644     2.4643 C.ar    
  12 C12           -1.3699     3.9994     3.4957 C.ar    
  13 C13           -0.4454     4.6975     4.2385 C.ar    
  14 C14            0.9176     4.5675     3.9565 C.ar    
  15 C15            1.3370     3.7282     2.9201 C.ar    
  16 C16            0.4080     3.0285     2.1847 C.ar    
  17 C17            1.9112     5.3148     4.7505 C.2     
  18 O18            2.9562     4.7830     5.0728 O.2     
  19 N19            1.6608     6.5869     5.1187 N.am    
  20 C20            2.6712     7.3774     5.8379 C.3     
  21 C21            2.8493     8.7154     5.1123 C.3     
  22 N22            1.5409     9.3666     4.9645 N.3     
  23 C23            0.6385     8.5654     4.1268 C.3     
  24 C24            0.3721     7.2233     4.8066 C.3     
  25 C25            1.6801    10.6598     4.4554 C.ar    
  26 C26            0.5566    11.4479     4.2403 C.ar    
  27 C27            0.6978    12.7263     3.7373 C.ar    
  28 C28            1.9559    13.2220     3.4478 C.ar    
  29 C29            3.0765    12.4402     3.6608 C.ar    
  30 C30            2.9428    11.1628     4.1685 C.ar    
  31 O31            0.0672     7.0735    -1.0336 O.3     
  32 C32           -0.1567     8.4064    -1.4975 C.3     
  33 H33            0.1043     4.5779    -0.2389 H       
  34 H34           -2.3762     7.7307    -1.7127 H       
  35 H35           -4.3279     6.2342    -1.6171 H       
  36 H36           -4.0657     3.9149    -0.8353 H       
  37 H37           -2.6007     1.9799     2.1612 H       
  38 H38           -2.4231     4.0997     3.7129 H       
  39 H39           -0.7726     5.3453     5.0383 H       
  40 H40            2.3893     3.6260     2.6996 H       
  41 H41            0.7317     2.3763     1.3870 H       
  42 H42            2.3367     7.5567     6.8597 H       
  43 H43            3.6183     6.8380     5.8490 H       
  44 H44            3.5121     9.3580     5.6919 H       
  45 H45            3.2818     8.5402     4.1273 H       
  46 H46           -0.3021     9.0992     3.9916 H       
  47 H47            1.1018     8.3923     3.1555 H       
  48 H48           -0.2002     6.5820     4.1362 H       
  49 H49           -0.1877     7.3874     5.7273 H       
  50 H50           -0.4263    11.0612     4.4658 H       
  51 H51           -0.1753    13.3394     3.5695 H       
  52 H52            2.0635    14.2220     3.0542 H       
  53 H53            4.0576    12.8304     3.4337 H       
  54 H54            3.8186    10.5543     4.3388 H       
  55 H55           -0.5510     8.3762    -2.5132 H       
  56 H56           -0.8739     8.9030    -0.8439 H       
  57 H57            0.7841     8.9569    -1.4892 H       
@<TRIPOS>BOND
   1    1    2 ar
   2    1    6 ar
   3    1    7 1
   4    2    3 ar
   5    2   33 1
   6    3    4 ar
   7    3   31 1
   8    4    5 ar
   9    4   34 1
  10    5    6 ar
  11    5   35 1
  12    6   36 1
  13    7    8 2
  14    7    9 2
  15    7   10 am
  16   10   11 1
  17   10   37 1
  18   11   12 ar
  19   11   16 ar
  20   12   13 ar
  21   12   38 1
  22   13   14 ar
  23   13   39 1
  24   14   15 ar
  25   14   17 1
  26   15   16 ar
  27   15   40 1
  28   16   41 1
  29   17   18 2
  30   17   19 am
  31   19   20 1
  32   19   24 1
  33   20   21 1
  34   20   42 1
  35   20   43 1
  36   21   22 1
  37   21   44 1
  38   21   45 1
  39   22   23 1
  40   22   25 1
  41   23   24 1
  42   23   46 1
  43   23   47 1
  44   24   48 1
  45   24   49 1
  46   25   26 ar
  47   25   30 ar
  48   26   27 ar
  49   26   50 1
  50   27   28 ar
  51   27   51 1
  52   28   29 ar
  53   28   52 1
  54   29   30 ar
  55   29   53 1
  56   30   54 1
  57   31   32 1
  58   32   55 1
  59   32   56 1
  60   32   57 1

#	End of record

