#	Name: ASD02038296
#	Creating user name:	WinNT
#	Creation time:	15. 06. 2019 20:16

#	Modifying user name:	WinNT
#	Modification time:	15. 06. 2019 20:16

#	Program:	/corina/corina34_cracker 3.40 0067  02.08.2006

@<TRIPOS>MOLECULE
ASD02038296
  59   62    0    0    0
SMALL
NO_CHARGES


@<TRIPOS>ATOM
   1 C1            -0.0187     1.5263     0.0104 C.3     
   2 C2             0.0021    -0.0041     0.0020 C.3     
   3 N3             0.7238    -0.4751    -1.1883 N.3     
   4 C4             0.7003    -1.9415    -1.2723 C.3     
   5 C5             1.6601    -2.4049    -2.3699 C.3     
   6 C6             1.6357    -3.9322    -2.4573 C.3     
   7 O7             2.6158    -4.3711    -3.4001 O.3     
   8 C8             2.7249    -5.7118    -3.5982 C.ar    
   9 C9             3.6526    -6.2001    -4.4959 C.ar    
  10 C10            1.9036    -6.5861    -2.8899 C.ar    
  11 C11            2.0007    -7.9471    -3.0769 C.ar    
  12 C12            2.9254    -8.4601    -3.9808 C.ar    
  13 C13            3.7604    -7.5806    -4.6950 C.ar    
  14 C14            2.1034     0.0310    -1.1988 C.3     
  15 C15            2.0826     1.5614    -1.1904 C.3     
  16 N16            1.3610     2.0324    -0.0000 N.3     
  17 C17            1.3833     3.4267     0.0798 C.ar    
  18 C18            2.0342     4.1696    -0.8972 C.ar    
  19 C19            2.0539     5.5479    -0.8155 C.ar    
  20 C20            1.4270     6.1888     0.2376 C.ar    
  21 C21            0.7783     5.4525     1.2116 C.ar    
  22 C22            0.7499     4.0737     1.1329 C.ar    
  23 N23            3.0377    -9.8207    -4.1827 N.am    
  24 C24            3.9305   -10.3191    -5.0556 C.2     
  25 C25            4.7870    -9.4796    -5.7995 C.2     
  26 C26            4.7288    -8.1339    -5.6435 C.2     
  27 O27            4.0023   -11.5263    -5.2081 O.2     
  28 O28            1.2550    -1.8495    -3.6227 O.3     
  29 C29            1.4515     7.6931     0.3240 C.3     
  30 C30            0.0967     6.1552     2.3573 C.3     
  31 H31           -0.5453     1.8877    -0.8728 H       
  32 H32           -0.5283     1.8781     0.9074 H       
  33 H33            0.5048    -0.3659     0.8989 H       
  34 H34           -1.0203    -0.3815    -0.0195 H       
  35 H35            1.0093    -2.3651    -0.3167 H       
  36 H36           -0.3100    -2.2758    -1.5082 H       
  37 H37            2.6704    -2.0706    -2.1340 H       
  38 H38            1.8583    -4.3558    -1.4780 H       
  39 H39            0.6481    -4.2619    -2.7798 H       
  40 H40            4.2910    -5.5208    -5.0413 H       
  41 H41            1.1841    -6.1929    -2.1870 H       
  42 H42            1.3595    -8.6158    -2.5219 H       
  43 H43            2.6300    -0.3304    -0.3155 H       
  44 H44            2.6130    -0.3208    -2.0958 H       
  45 H45            3.1050     1.9388    -1.1689 H       
  46 H46            1.5799     1.9232    -2.0873 H       
  47 H47            2.5245     3.6697    -1.7195 H       
  48 H48            2.5597     6.1260    -1.5747 H       
  49 H49            0.2427     3.4992     1.8939 H       
  50 H50            2.4643   -10.4263    -3.6874 H       
  51 H51            5.4940    -9.9108    -6.4928 H       
  52 H52            5.3804    -7.4842    -6.2089 H       
  53 H53            0.3635    -2.1054    -3.8965 H       
  54 H54            0.5876     8.1013    -0.2006 H       
  55 H55            1.4186     7.9976     1.3701 H       
  56 H56            2.3661     8.0686    -0.1351 H       
  57 H57           -0.9376     6.3698     2.0882 H       
  58 H58            0.1174     5.5158     3.2398 H       
  59 H59            0.6172     7.0884     2.5725 H       
@<TRIPOS>BOND
   1    1    2 1
   2    1   16 1
   3    1   31 1
   4    1   32 1
   5    2    3 1
   6    2   33 1
   7    2   34 1
   8    3    4 1
   9    3   14 1
  10    4    5 1
  11    4   35 1
  12    4   36 1
  13    5    6 1
  14    5   28 1
  15    5   37 1
  16    6    7 1
  17    6   38 1
  18    6   39 1
  19    7    8 1
  20    8    9 ar
  21    8   10 ar
  22    9   13 ar
  23    9   40 1
  24   10   11 ar
  25   10   41 1
  26   11   12 ar
  27   11   42 1
  28   12   13 ar
  29   12   23 1
  30   13   26 1
  31   14   15 1
  32   14   43 1
  33   14   44 1
  34   15   16 1
  35   15   45 1
  36   15   46 1
  37   16   17 1
  38   17   18 ar
  39   17   22 ar
  40   18   19 ar
  41   18   47 1
  42   19   20 ar
  43   19   48 1
  44   20   21 ar
  45   20   29 1
  46   21   22 ar
  47   21   30 1
  48   22   49 1
  49   23   24 am
  50   23   50 1
  51   24   25 1
  52   24   27 2
  53   25   26 2
  54   25   51 1
  55   26   52 1
  56   28   53 1
  57   29   54 1
  58   29   55 1
  59   29   56 1
  60   30   57 1
  61   30   58 1
  62   30   59 1

#	End of record

