#	Name: ASD00840159
#	Creating user name:	WinNT
#	Creation time:	15. 06. 2019 18:37

#	Modifying user name:	WinNT
#	Modification time:	15. 06. 2019 18:37

#	Program:	/corina/corina34_cracker 3.40 0067  02.08.2006

@<TRIPOS>MOLECULE
ASD00840159
  30   32    0    0    0
SMALL
NO_CHARGES


@<TRIPOS>ATOM
   1 Cl1            1.6990    -3.7013     3.2615 Cl      
   2 F2             1.6346    -0.0191    -1.7472 F       
   3 F3            -0.5771    -0.0459    -2.3192 F       
   4 F4             0.3883    -1.9024    -1.4023 F       
   5 O5            -0.0176     1.4492     0.0100 O.3     
   6 O6             1.3003     3.1113    -0.6315 O.2     
   7 N7             2.2162     1.5855     0.6912 N.am    
   8 C8            -3.7125    -1.4387     1.0516 C.3     
   9 C9            -4.8953    -1.0568     0.1594 C.3     
  10 C10           -4.3498    -2.4861     0.1363 C.3     
  11 C11            0.0021    -0.0041     0.0020 C.3     
  12 C12           -2.3847    -0.9259     0.6764 C.1     
  13 C13            1.0287    -0.4859     0.9963 C.ar    
  14 C14           -1.3257    -0.5169     0.3772 C.1     
  15 C15            2.1131     0.3287     1.2987 C.ar    
  16 C16            0.3698    -0.5036    -1.3966 C.3     
  17 C17            0.9005    -1.7193     1.5993 C.ar    
  18 C18            3.0761    -0.1064     2.1969 C.ar    
  19 C19            1.1703     2.0826     0.0021 C.2     
  20 C20            1.8599    -2.1495     2.5001 C.ar    
  21 C21            2.9469    -1.3452     2.7952 C.ar    
  22 H22           -3.8975    -1.5266     2.1222 H       
  23 H23           -5.8584    -0.8934     0.6430 H       
  24 H24           -4.6902    -0.4258    -0.7054 H       
  25 H25           -3.7858    -2.7954    -0.7437 H       
  26 H26           -4.9540    -3.2630     0.6047 H       
  27 H27            0.0531    -2.3484     1.3697 H       
  28 H28            3.0371     2.0967     0.7661 H       
  29 H29            3.9245     0.5208     2.4277 H       
  30 H30            3.6956    -1.6864     3.4948 H       
@<TRIPOS>BOND
   1    1   20 1
   2    2   16 1
   3    3   16 1
   4    4   16 1
   5    5   11 1
   6    5   19 1
   7    6   19 2
   8    7   15 1
   9    7   19 am
  10    7   28 1
  11    8    9 1
  12    8   10 1
  13    8   12 1
  14    8   22 1
  15    9   10 1
  16    9   23 1
  17    9   24 1
  18   10   25 1
  19   10   26 1
  20   11   13 1
  21   11   14 1
  22   11   16 1
  23   12   14 3
  24   13   15 ar
  25   13   17 ar
  26   15   18 ar
  27   17   20 ar
  28   17   27 1
  29   18   21 ar
  30   18   29 1
  31   20   21 ar
  32   21   30 1

#	End of record

