#	Name: ASD01811497
#	Creating user name:	WinNT
#	Creation time:	15. 06. 2019 19:26

#	Modifying user name:	WinNT
#	Modification time:	15. 06. 2019 19:26

#	Program:	/corina/corina34_cracker 3.40 0067  02.08.2006

@<TRIPOS>MOLECULE
ASD01811497
  43   43    0    0    0
SMALL
NO_CHARGES


@<TRIPOS>ATOM
   1 N1            -0.0180     1.4731     0.0101 N.am    
   2 C2             0.0021    -0.0041     0.0020 C.3     
   3 C3             0.2398    -0.5387     1.3514 C.3     
   4 C4             1.5734    -0.0275     1.9305 C.3     
   5 C5             1.3838     1.3744     2.3601 C.2     
   6 C6             1.6809     2.5612     1.4394 C.3     
   7 C7             1.2149     2.2090     0.0023 C.3     
   8 C8            -1.1945     2.1305     0.0193 C.2     
   9 O9            -2.2382     1.5082     0.0209 O.2     
  10 O10           -1.2134     3.4767     0.0267 O.3     
  11 C11            1.9709    -0.8722     3.1135 C.2     
  12 O12            1.2674    -1.7898     3.4643 O.2     
  13 O13            3.1066    -0.6054     3.7774 O.3     
  14 O14            0.9797     1.5913     3.4772 O.2     
  15 C15            3.4265    -1.4602     4.9067 C.3     
  16 C16            4.7466    -1.0059     5.5324 C.3     
  17 C17           -2.5163     4.1176     0.0364 C.3     
  18 C18           -3.2864     3.6887     1.2870 C.3     
  19 C19           -2.3372     5.6370     0.0438 C.3     
  20 C20           -3.2982     3.7023    -1.2115 C.3     
  21 H21           -0.9559    -0.3726    -0.3649 H       
  22 H22            0.7945    -0.3472    -0.6632 H       
  23 H23           -0.5752    -0.2300     2.0061 H       
  24 H24            0.2653    -1.6274     1.3044 H       
  25 H25            2.3489    -0.0761     1.1661 H       
  26 H26            1.1431     3.4410     1.7925 H       
  27 H27            2.7522     2.7623     1.4369 H       
  28 H28            1.9841     1.6091    -0.4840 H       
  29 H29            1.0750     3.1310    -0.5621 H       
  30 H30            2.6309    -1.3945     5.6489 H       
  31 H31            3.5216    -2.4913     4.5663 H       
  32 H32            4.6515     0.0253     5.8728 H       
  33 H33            4.9868    -1.6476     6.3801 H       
  34 H34            5.5422    -1.0716     4.7902 H       
  35 H35           -2.7293     3.9846     2.1759 H       
  36 H36           -4.2644     4.1698     1.2942 H       
  37 H37           -3.4140     2.6062     1.2817 H       
  38 H38           -1.7885     5.9426    -0.8472 H       
  39 H39           -3.3152     6.1182     0.0510 H       
  40 H40           -1.7801     5.9329     0.9327 H       
  41 H41           -3.4258     2.6198    -1.2167 H       
  42 H42           -4.2762     4.1834    -1.2042 H       
  43 H43           -2.7496     4.0078    -2.1024 H       
@<TRIPOS>BOND
   1    1    2 1
   2    1    7 1
   3    1    8 am
   4    2    3 1
   5    2   21 1
   6    2   22 1
   7    3    4 1
   8    3   23 1
   9    3   24 1
  10    4    5 1
  11    4   11 1
  12    4   25 1
  13    5    6 1
  14    5   14 2
  15    6    7 1
  16    6   26 1
  17    6   27 1
  18    7   28 1
  19    7   29 1
  20    8    9 2
  21    8   10 1
  22   10   17 1
  23   11   12 2
  24   11   13 1
  25   13   15 1
  26   15   16 1
  27   15   30 1
  28   15   31 1
  29   16   32 1
  30   16   33 1
  31   16   34 1
  32   17   18 1
  33   17   20 1
  34   17   19 1
  35   18   35 1
  36   18   36 1
  37   18   37 1
  38   19   38 1
  39   19   39 1
  40   19   40 1
  41   20   41 1
  42   20   42 1
  43   20   43 1

#	End of record

