#	Name: ASD01812467
#	Creating user name:	WinNT
#	Creation time:	15. 06. 2019 19:28

#	Modifying user name:	WinNT
#	Modification time:	15. 06. 2019 19:28

#	Program:	/corina/corina34_cracker 3.40 0067  02.08.2006

@<TRIPOS>MOLECULE
ASD01812467
  56   61    0    0    0
SMALL
NO_CHARGES


@<TRIPOS>ATOM
   1 C1             0.3475     1.5796    -0.2445 C.ar    
   2 C2             0.2945     0.2068    -0.3924 C.ar    
   3 C3             1.4594    -0.5146    -0.5770 C.ar    
   4 C4             2.6774     0.1344    -0.6162 C.ar    
   5 C5             2.7399     1.5166    -0.4693 C.ar    
   6 C6             1.5680     2.2392    -0.2806 C.ar    
   7 N7             3.9911     2.1393    -0.5202 N.3     
   8 C8             3.9719     3.4703     0.0978 C.3     
   9 C9             2.7962     4.2643    -0.4861 C.3     
  10 O10            1.5865     3.5913    -0.1220 O.3     
  11 C11            5.0261     1.2919     0.0869 C.3     
  12 C12            6.3883     1.8137    -0.2913 C.ar    
  13 C13            7.0466     1.2918    -1.3896 C.ar    
  14 C14            6.9750     2.8175     0.4573 C.ar    
  15 C15            8.2232     3.2981     0.1129 C.ar    
  16 C16            8.8889     2.7724    -0.9862 C.ar    
  17 C17            8.2952     1.7680    -1.7388 C.ar    
  18 N18            3.7920     6.5132    -0.2228 N.am    
  19 C19            2.7930     5.6609     0.0802 C.2     
  20 O20            1.8913     6.0178     0.8087 O.2     
  21 N21           10.1559     3.2582    -1.3384 N.pl3   
  22 C22           10.9089     2.8363    -2.3793 C.2     
  23 C23           12.0566     3.5531    -2.3744 C.2     
  24 C24           12.0045     4.4424    -1.2954 C.2     
  25 N25           10.8635     4.2707    -0.6777 N.2     
  26 C26            3.7457     7.8360     0.2327 C.ar    
  27 C27            4.2593     8.8696    -0.5560 C.ar    
  28 C28            4.2054    10.1938    -0.0856 C.ar    
  29 C29            3.6373    10.4605     1.1678 C.ar    
  30 C30            3.1412     9.4382     1.9227 C.ar    
  31 C31            3.1867     8.1288     1.4627 C.ar    
  32 N32            4.8577     8.9152    -1.7896 N.pl3   
  33 N33            5.1675    10.2510    -2.0732 N.2     
  34 C34            4.7911    11.0090    -1.0844 C.2     
  35 H35           -0.5641     2.1416    -0.1048 H       
  36 H36           -0.6572    -0.3029    -0.3635 H       
  37 H37            1.4166    -1.5878    -0.6904 H       
  38 H38            3.5849    -0.4329    -0.7610 H       
  39 H39            3.8468     3.3712     1.1761 H       
  40 H40            4.9064     3.9878    -0.1187 H       
  41 H41            2.8819     4.3070    -1.5719 H       
  42 H42            4.9190     1.3083     1.1715 H       
  43 H43            4.9158     0.2691    -0.2736 H       
  44 H44            6.5841     0.5108    -1.9749 H       
  45 H45            6.4565     3.2263     1.3120 H       
  46 H46            8.6807     4.0823     0.6977 H       
  47 H47            8.8092     1.3595    -2.5963 H       
  48 H48            4.5431     6.2100    -0.7564 H       
  49 H49           10.6421     2.0658    -3.0875 H       
  50 H50           12.8697     3.4555    -3.0785 H       
  51 H51           12.7717     5.1517    -1.0222 H       
  52 H52            3.5928    11.4748     1.5360 H       
  53 H53            2.7048     9.6502     2.8876 H       
  54 H54            2.7855     7.3325     2.0722 H       
  55 H55            5.0355     8.1547    -2.3649 H       
  56 H56            4.9066    12.0816    -1.0340 H       
@<TRIPOS>BOND
   1    1    2 ar
   2    1    6 ar
   3    1   35 1
   4    2    3 ar
   5    2   36 1
   6    3    4 ar
   7    3   37 1
   8    4    5 ar
   9    4   38 1
  10    5    7 1
  11    5    6 ar
  12    6   10 1
  13    7   11 1
  14    7    8 1
  15    8    9 1
  16    8   39 1
  17    8   40 1
  18    9   10 1
  19    9   19 1
  20    9   41 1
  21   11   12 1
  22   11   42 1
  23   11   43 1
  24   12   14 ar
  25   12   13 ar
  26   13   17 ar
  27   13   44 1
  28   14   15 ar
  29   14   45 1
  30   15   16 ar
  31   15   46 1
  32   16   17 ar
  33   16   21 1
  34   17   47 1
  35   18   19 am
  36   18   26 1
  37   18   48 1
  38   19   20 2
  39   21   22 1
  40   21   25 1
  41   22   23 2
  42   22   49 1
  43   23   24 1
  44   23   50 1
  45   24   25 2
  46   24   51 1
  47   26   27 ar
  48   26   31 ar
  49   27   32 1
  50   27   28 ar
  51   28   29 ar
  52   28   34 1
  53   29   30 ar
  54   29   52 1
  55   30   31 ar
  56   30   53 1
  57   31   54 1
  58   32   33 1
  59   32   55 1
  60   33   34 2
  61   34   56 1

#	End of record

