#	Name: ASD02039466
#	Creating user name:	WinNT
#	Creation time:	15. 06. 2019 20:18

#	Modifying user name:	WinNT
#	Modification time:	15. 06. 2019 20:18

#	Program:	/corina/corina34_cracker 3.40 0067  02.08.2006

@<TRIPOS>MOLECULE
ASD02039466
  51   54    0    0    0
SMALL
NO_CHARGES


@<TRIPOS>ATOM
   1 C1             0.8701     1.5780     0.6302 C.ar    
   2 C2             1.4000     0.3409     0.9643 C.ar    
   3 C3             1.7664     2.6819     0.1312 C.3     
   4 N4             1.7717     2.6819    -1.3338 N.am    
   5 C5             0.9366     3.4949    -2.0107 C.2     
   6 C6            -0.0590     4.3001    -1.2820 C.2     
   7 C7            -0.8821     5.2453    -1.8207 C.2     
   8 N8            -0.3285     4.2325     0.0468 N.2     
   9 C9            -1.2652     5.0908     0.3305 C.2     
  10 N10           -1.6320     5.7372    -0.8067 N.pl3   
  11 O11            1.0049     3.5638    -3.2230 O.2     
  12 C12           -2.6551     6.7801    -0.9159 C.3     
  13 C13            2.6847     1.7982    -2.0631 C.3     
  14 C14            0.5404    -0.6480     1.4197 C.ar    
  15 C15           -1.2274     0.8073     1.1831 C.ar    
  16 N16           -0.4316     1.7758     0.7497 N.ar    
  17 C17           -2.6818     1.0653     1.3037 C.ar    
  18 C18           -3.5347     0.0596     1.7575 C.ar    
  19 C19           -4.8869     0.3028     1.8691 C.ar    
  20 C20           -5.4002     1.5479     1.5296 C.ar    
  21 C21           -4.5535     2.5516     1.0773 C.ar    
  22 C22           -3.1996     2.3163     0.9691 C.ar    
  23 N23           -0.7506    -0.3836     1.5213 N.ar    
  24 C24            1.9820     0.9082    -3.1018 C.3     
  25 C25            3.1814     1.1757    -4.0264 C.3     
  26 C26            3.3924     2.4829    -3.2443 C.3     
  27 C27           -7.1934     3.0866     1.2738 C.3     
  28 F28           -6.8774     3.3334    -0.0665 F       
  29 F29           -6.5736     4.0448     2.0831 F       
  30 F30           -8.5800     3.1568     1.4465 F       
  31 O31           -6.7331     1.7843     1.6397 O.3     
  32 H32            2.4591     0.1512     0.8715 H       
  33 H33            1.3972     3.6414     0.4932 H       
  34 H34            2.7801     2.5207     0.4981 H       
  35 H35           -0.9266     5.5442    -2.8576 H       
  36 H36           -1.6851     5.2595     1.3111 H       
  37 H37           -2.1958     7.7569    -0.7643 H       
  38 H38           -3.1088     6.7417    -1.9062 H       
  39 H39           -3.4218     6.6176    -0.1583 H       
  40 H40            3.3602     1.2515    -1.4051 H       
  41 H41            0.9215    -1.6223     1.6878 H       
  42 H42           -3.1361    -0.9090     2.0210 H       
  43 H43           -5.5478    -0.4756     2.2204 H       
  44 H44           -4.9557     3.5187     0.8141 H       
  45 H45           -2.5416     3.0972     0.6173 H       
  46 H46            1.8915    -0.1336    -2.7944 H       
  47 H47            1.0448     1.3246    -3.4710 H       
  48 H48            3.9938     0.4590    -3.9062 H       
  49 H49            2.9031     1.3307    -5.0688 H       
  50 H50            2.8407     3.3298    -3.6524 H       
  51 H51            4.4404     2.7123    -3.0519 H       
@<TRIPOS>BOND
   1    1    2 ar
   2    1    3 1
   3    1   16 ar
   4    2   14 ar
   5    2   32 1
   6    3    4 1
   7    3   33 1
   8    3   34 1
   9    4    5 am
  10    4   13 1
  11    5    6 1
  12    5   11 2
  13    6    7 2
  14    6    8 1
  15    7   10 1
  16    7   35 1
  17    8    9 2
  18    9   10 1
  19    9   36 1
  20   10   12 1
  21   12   37 1
  22   12   38 1
  23   12   39 1
  24   13   24 1
  25   13   26 1
  26   13   40 1
  27   14   23 ar
  28   14   41 1
  29   15   16 ar
  30   15   17 1
  31   15   23 ar
  32   17   18 ar
  33   17   22 ar
  34   18   19 ar
  35   18   42 1
  36   19   20 ar
  37   19   43 1
  38   20   21 ar
  39   20   31 1
  40   21   22 ar
  41   21   44 1
  42   22   45 1
  43   24   25 1
  44   24   46 1
  45   24   47 1
  46   25   26 1
  47   25   48 1
  48   25   49 1
  49   26   50 1
  50   26   51 1
  51   27   28 1
  52   27   29 1
  53   27   30 1
  54   27   31 1

#	End of record

