#	Name: ASD09200008
#	Creating user name:	WinNT
#	Creation time:	15. 06. 2019 21:21

#	Modifying user name:	WinNT
#	Modification time:	15. 06. 2019 21:21

#	Program:	/corina/corina34_cracker 3.40 0067  02.08.2006

@<TRIPOS>MOLECULE
ASD09200008
  42   44    0    0    0
SMALL
NO_CHARGES


@<TRIPOS>ATOM
   1 C1            -0.0170     1.4034     0.0098 C.ar    
   2 C2             0.0021    -0.0041     0.0020 C.ar    
   3 C3             1.2378    -0.6465    -0.0132 C.ar    
   4 N4             2.3427     0.0819    -0.0199 N.ar    
   5 C5             2.2887     1.4060    -0.0122 C.ar    
   6 N6             1.1368     2.0604     0.0023 N.ar    
   7 C7            -1.2600    -0.7822     0.0104 C.ar    
   8 C8            -1.4580    -1.8043    -0.9170 C.ar    
   9 C9            -2.6343    -2.5255    -0.9051 C.ar    
  10 C10           -3.6169    -2.2365     0.0246 C.ar    
  11 C11           -3.4267    -1.2227     0.9478 C.ar    
  12 C12           -2.2503    -0.4984     0.9489 C.ar    
  13 N13            3.4698     2.1260    -0.0197 N.3     
  14 C14            4.6336     1.2288    -0.0356 C.3     
  15 C15            5.9149     2.0611    -0.1237 C.3     
  16 N16            5.9783     2.9807     1.0208 N.3     
  17 C17            4.8146     3.8780     1.0368 C.3     
  18 C18            3.5332     3.0457     1.1248 C.3     
  19 N19           -1.2176     2.0905     0.0192 N.pl3   
  20 Cl20          -4.6654    -0.8657     2.1105 Cl      
  21 C21            7.1300     1.1316    -0.0994 C.3     
  22 C22            4.9035     4.8079     2.2485 C.3     
  23 H23            1.2936    -1.7251    -0.0192 H       
  24 H24           -0.6919    -2.0309    -1.6438 H       
  25 H25           -2.7883    -3.3171    -1.6235 H       
  26 H26           -4.5360    -2.8037     0.0301 H       
  27 H27           -2.1004     0.2892     1.6724 H       
  28 H28            4.6476     0.6351     0.8785 H       
  29 H29            4.5702     0.5663    -0.8988 H       
  30 H30            5.9134     2.6340    -1.0509 H       
  31 H31            6.0550     2.4726     1.8892 H       
  32 H32            4.8005     4.4716     0.1227 H       
  33 H33            2.6675     3.7079     1.1076 H       
  34 H34            3.5347     2.4727     2.0521 H       
  35 H35           -2.0558     1.6023     0.0206 H       
  36 H36           -1.2213     3.0605     0.0245 H       
  37 H37            7.0818     0.4483    -0.9473 H       
  38 H38            8.0424     1.7246    -0.1622 H       
  39 H39            7.1315     0.5596     0.8284 H       
  40 H40            5.8172     5.3991     2.1864 H       
  41 H41            4.0403     5.4733     2.2600 H       
  42 H42            4.9166     4.2138     3.1622 H       
@<TRIPOS>BOND
   1    1    2 ar
   2    1    6 ar
   3    1   19 1
   4    2    3 ar
   5    2    7 1
   6    3    4 ar
   7    3   23 1
   8    4    5 ar
   9    5    6 ar
  10    5   13 1
  11    7    8 ar
  12    7   12 ar
  13    8    9 ar
  14    8   24 1
  15    9   10 ar
  16    9   25 1
  17   10   11 ar
  18   10   26 1
  19   11   12 ar
  20   11   20 1
  21   12   27 1
  22   13   14 1
  23   13   18 1
  24   14   15 1
  25   14   28 1
  26   14   29 1
  27   15   16 1
  28   15   21 1
  29   15   30 1
  30   16   17 1
  31   16   31 1
  32   17   18 1
  33   17   22 1
  34   17   32 1
  35   18   33 1
  36   18   34 1
  37   19   35 1
  38   19   36 1
  39   21   37 1
  40   21   38 1
  41   21   39 1
  42   22   40 1
  43   22   41 1
  44   22   42 1

#	End of record

