#	Name: ASD03090942
#	Creating user name:	WinNT
#	Creation time:	15. 06. 2019 20:29

#	Modifying user name:	WinNT
#	Modification time:	15. 06. 2019 20:29

#	Program:	/corina/corina34_cracker 3.40 0067  02.08.2006

@<TRIPOS>MOLECULE
ASD03090942
  58   61    0    0    0
SMALL
NO_CHARGES


@<TRIPOS>ATOM
   1 N1            -0.0149     1.3422     0.1044 N.am    
   2 C2             0.0030    -0.0051     0.0716 C.2     
   3 O3            -1.0442    -0.6288     0.0745 O.2     
   4 N4             1.1687    -0.6570     0.0359 N.2     
   5 S5            -0.1729    -3.0447     0.0007 S.3     
   6 C6             1.1864    -1.9875     0.0035 C.2     
   7 N7             2.2793    -2.7909    -0.0347 N.pl3   
   8 C8             2.0560    -4.1338    -0.0637 C.2     
   9 C9             0.7906    -4.5309    -0.0519 C.2     
  10 O10            7.3995    -0.6836    -0.0827 O.3     
  11 C11            8.4608    -1.5246     0.3820 C.3     
  12 C12            8.2947    -2.9077    -0.2621 C.3     
  13 O13            7.0209    -3.4330     0.1269 O.3     
  14 C14            5.9571    -2.5888     0.0357 C.ar    
  15 C15            6.1456    -1.2151    -0.0670 C.ar    
  16 C16            4.6732    -3.1108     0.0454 C.ar    
  17 C17            3.5781    -2.2627    -0.0443 C.ar    
  18 C18            3.7693    -0.8916    -0.1440 C.ar    
  19 C19            5.0490    -0.3708    -0.1552 C.ar    
  20 F20            8.3509    -2.7894    -1.6549 F       
  21 F21            9.3119    -3.7598     0.1812 F       
  22 F22            9.6936    -0.9767     0.0118 F       
  23 F23            8.3948    -1.6417     1.7746 F       
  24 C24            0.2795    -5.9484    -0.0783 C.3     
  25 C25            1.2437     2.0918     0.1009 C.3     
  26 C26            1.6572     2.3875    -1.3422 C.3     
  27 C27            2.9717     3.1704    -1.3459 C.3     
  28 C28            3.3851     3.4661    -2.7890 C.3     
  29 C29           -1.2932     2.0571     0.1375 C.3     
  30 C30           -1.7139     2.2679     1.5691 C.ar    
  31 C31           -1.3222     3.4091     2.2438 C.ar    
  32 C32           -1.7081     3.6024     3.5570 C.ar    
  33 C33           -2.4861     2.6548     4.1955 C.ar    
  34 C34           -2.8786     1.5140     3.5205 C.ar    
  35 C35           -2.4963     1.3228     2.2059 C.ar    
  36 H36            2.8708    -4.8420    -0.0948 H       
  37 H37            4.5248    -4.1777     0.1237 H       
  38 H38            2.9174    -0.2314    -0.2128 H       
  39 H39            5.1956     0.6964    -0.2325 H       
  40 H40           -0.8103    -5.9421    -0.0604 H       
  41 H41            0.6252    -6.4424    -0.9864 H       
  42 H42            0.6541    -6.4859     0.7928 H       
  43 H43            1.1096     3.0296     0.6398 H       
  44 H44            2.0199     1.5010     0.5873 H       
  45 H45            1.7913     1.4496    -1.8812 H       
  46 H46            0.8810     2.9783    -1.8287 H       
  47 H47            2.8375     4.1083    -0.8069 H       
  48 H48            3.7478     2.5796    -0.8594 H       
  49 H49            3.5193     2.5283    -3.3280 H       
  50 H50            2.6090     4.0570    -3.2755 H       
  51 H51            4.3216     4.0239    -2.7917 H       
  52 H52           -1.1819     3.0233    -0.3545 H       
  53 H53           -2.0512     1.4703    -0.3813 H       
  54 H54           -0.7144     4.1495     1.7450 H       
  55 H55           -1.4015     4.4937     4.0843 H       
  56 H56           -2.7870     2.8055     5.2217 H       
  57 H57           -3.4861     0.7735     4.0194 H       
  58 H58           -2.8060     0.4333     1.6775 H       
@<TRIPOS>BOND
   1    1    2 am
   2    1   25 1
   3    1   29 1
   4    2    3 2
   5    2    4 1
   6    4    6 2
   7    5    6 1
   8    5    9 1
   9    6    7 1
  10    7    8 1
  11    7   17 1
  12    8    9 2
  13    8   36 1
  14    9   24 1
  15   10   11 1
  16   10   15 1
  17   11   12 1
  18   11   22 1
  19   11   23 1
  20   12   13 1
  21   12   20 1
  22   12   21 1
  23   13   14 1
  24   14   15 ar
  25   14   16 ar
  26   15   19 ar
  27   16   17 ar
  28   16   37 1
  29   17   18 ar
  30   18   19 ar
  31   18   38 1
  32   19   39 1
  33   24   40 1
  34   24   41 1
  35   24   42 1
  36   25   26 1
  37   25   43 1
  38   25   44 1
  39   26   27 1
  40   26   45 1
  41   26   46 1
  42   27   28 1
  43   27   47 1
  44   27   48 1
  45   28   49 1
  46   28   50 1
  47   28   51 1
  48   29   30 1
  49   29   52 1
  50   29   53 1
  51   30   31 ar
  52   30   35 ar
  53   31   32 ar
  54   31   54 1
  55   32   33 ar
  56   32   55 1
  57   33   34 ar
  58   33   56 1
  59   34   35 ar
  60   34   57 1
  61   35   58 1

#	End of record

