#	Name: ASD08150699
#	Creating user name:	WinNT
#	Creation time:	15. 06. 2019 21:16

#	Modifying user name:	WinNT
#	Modification time:	15. 06. 2019 21:16

#	Program:	/corina/corina34_cracker 3.40 0067  02.08.2006

@<TRIPOS>MOLECULE
ASD08150699
  52   56    0    0    0
SMALL
NO_CHARGES


@<TRIPOS>ATOM
   1 C1            -0.0173     1.3319     0.1136 C.2     
   2 N2            -0.0005     0.0025     0.2060 N.2     
   3 C3             1.1327    -0.6707     0.2927 C.2     
   4 C4             2.3482     0.0114     0.2887 C.2     
   5 C5             2.3334     1.4189     0.1911 C.2     
   6 N6             1.1443     2.0532     0.1046 N.am    
   7 C7            -1.2508     2.0011     0.0181 C.2     
   8 C8            -1.2711     3.3608    -0.0765 C.2     
   9 C9            -0.0632     4.0722    -0.0773 C.2     
  10 C10            1.1134     3.4117     0.0084 C.2     
  11 O11            3.3764     2.0517     0.1852 O.2     
  12 C12            1.1113    -2.1740     0.3961 C.3     
  13 C13            0.4489    -2.5853     1.7126 C.3     
  14 C14            0.5384    -4.1039     1.8760 C.3     
  15 N15            0.3525    -2.7301    -0.7269 N.pl3   
  16 N16           -1.0982    -4.1219    -3.0527 N.2     
  17 C17           -1.4146    -5.0557    -3.9021 C.2     
  18 N18           -0.6532    -6.1645    -3.6803 N.pl3   
  19 C19            0.1808    -5.8867    -2.6269 C.ar    
  20 N20            1.1226    -6.5587    -1.9731 N.ar    
  21 C21            1.7703    -6.0027    -0.9709 C.ar    
  22 N22            1.5255    -4.7701    -0.5654 N.ar    
  23 C23            0.6015    -4.0212    -1.1586 C.ar    
  24 C24           -0.1166    -4.5707    -2.2341 C.ar    
  25 C25            2.4054     4.1875    -0.0001 C.3     
  26 C26            3.6290    -0.7260     0.3856 C.ar    
  27 C27            4.5283    -0.7092    -0.6803 C.ar    
  28 C28            5.7222    -1.3990    -0.5850 C.ar    
  29 C29            6.0260    -2.1067     0.5666 C.ar    
  30 C30            5.1361    -2.1265     1.6280 C.ar    
  31 C31            3.9423    -1.4348     1.5450 C.ar    
  32 F32            5.4380    -2.8185     2.7484 F       
  33 F33            6.5943    -1.3835    -1.6167 F       
  34 H34           -2.1748     1.4419     0.0194 H       
  35 H35           -2.2115     3.8865    -0.1508 H       
  36 H36           -0.0723     5.1496    -0.1520 H       
  37 H37            2.1323    -2.5547     0.3687 H       
  38 H38            0.9601    -2.0996     2.5438 H       
  39 H39           -0.5980    -2.2820     1.7028 H       
  40 H40            0.0665    -4.3968     2.8138 H       
  41 H41            0.0272    -4.5895     1.0447 H       
  42 H42            1.5853    -4.4072     1.8857 H       
  43 H43           -0.3244    -2.1933    -1.1680 H       
  44 H44           -2.1694    -4.9657    -4.6693 H       
  45 H45           -0.6939    -6.9972    -4.1760 H       
  46 H46            2.5300    -6.5764    -0.4608 H       
  47 H47            3.0125     3.8729    -0.8490 H       
  48 H48            2.1892     5.2526    -0.0830 H       
  49 H49            2.9491     3.9980     0.9254 H       
  50 H50            4.2921    -0.1583    -1.5787 H       
  51 H51            6.9596    -2.6450     0.6369 H       
  52 H52            3.2511    -1.4472     2.3748 H       
@<TRIPOS>BOND
   1    1    2 2
   2    1    6 1
   3    1    7 1
   4    2    3 1
   5    3    4 2
   6    3   12 1
   7    4    5 1
   8    4   26 1
   9    5    6 am
  10    5   11 2
  11    6   10 1
  12    7    8 2
  13    7   34 1
  14    8    9 1
  15    8   35 1
  16    9   10 2
  17    9   36 1
  18   10   25 1
  19   12   13 1
  20   12   15 1
  21   12   37 1
  22   13   14 1
  23   13   38 1
  24   13   39 1
  25   14   40 1
  26   14   41 1
  27   14   42 1
  28   15   23 1
  29   15   43 1
  30   16   17 2
  31   16   24 1
  32   17   18 1
  33   17   44 1
  34   18   19 1
  35   18   45 1
  36   19   20 ar
  37   19   24 ar
  38   20   21 ar
  39   21   22 ar
  40   21   46 1
  41   22   23 ar
  42   23   24 ar
  43   25   47 1
  44   25   48 1
  45   25   49 1
  46   26   27 ar
  47   26   31 ar
  48   27   28 ar
  49   27   50 1
  50   28   29 ar
  51   28   33 1
  52   29   30 ar
  53   29   51 1
  54   30   31 ar
  55   30   32 1
  56   31   52 1

#	End of record

