#	Name: ASD02198642
#	Creating user name:	WinNT
#	Creation time:	15. 06. 2019 20:19

#	Modifying user name:	WinNT
#	Modification time:	15. 06. 2019 20:19

#	Program:	/corina/corina34_cracker 3.40 0067  02.08.2006

@<TRIPOS>MOLECULE
ASD02198642
  49   53    0    0    0
SMALL
NO_CHARGES


@<TRIPOS>ATOM
   1 C1             0.0067     1.5061     0.1349 C.2     
   2 C2             0.0730     0.1660    -0.0930 C.2     
   3 N3            -1.0540    -0.5634    -0.2628 N.pl3   
   4 N4            -2.2316    -0.0592    -0.2220 N.2     
   5 C5            -2.4383     1.2239    -0.0090 C.2     
   6 C6            -1.2793     2.1040     0.1932 C.2     
   7 C7            -0.9274    -1.9370    -0.4950 C.ar    
   8 C8            -1.5143    -2.5101    -1.6192 C.ar    
   9 C9            -1.3883    -3.8674    -1.8471 C.ar    
  10 C10           -0.6764    -4.6577    -0.9546 C.ar    
  11 C11           -0.0908    -4.0849     0.1675 C.ar    
  12 C12           -0.2108    -2.7291     0.3936 C.ar    
  13 C13           -3.8112     1.7677     0.0305 C.2     
  14 N14           -4.3729     2.4808     1.0520 N.pl3   
  15 N15           -5.6842     2.8006     0.6785 N.2     
  16 C16           -5.9146     2.3081    -0.5125 C.2     
  17 C17           -4.7643     1.6567    -0.9579 C.2     
  18 C18           -3.7490     2.8294     2.2567 C.ar    
  19 C19           -3.9181     4.1025     2.7848 C.ar    
  20 C20           -3.3015     4.4431     3.9728 C.ar    
  21 C21           -2.5162     3.5181     4.6360 C.ar    
  22 C22           -2.3456     2.2496     4.1124 C.ar    
  23 C23           -2.9648     1.9007     2.9282 C.ar    
  24 O24           -1.4163     3.3021     0.3945 O.2     
  25 O25            1.1345     2.2465     0.3067 O.3     
  26 C26            2.3823     1.5536     0.2367 C.3     
  27 F27           -2.2071    -1.7404    -2.4869 F       
  28 N28           -0.5490    -6.0342    -1.1855 N.pl3   
  29 N29           -1.0842    -6.7423    -2.2694 N.2     
  30 C30           -0.7546    -8.0022    -2.1393 C.2     
  31 C31            0.0013    -8.1418    -0.9697 C.2     
  32 C32            0.1204    -6.9188    -0.4013 C.2     
  33 Cl33           0.6736    -9.6213    -0.3591 Cl      
  34 H34            1.0360    -0.3207    -0.1391 H       
  35 H35           -1.8436    -4.3133    -2.7190 H       
  36 H36            0.4626    -4.7006     0.8610 H       
  37 H37            0.2452    -2.2848     1.2660 H       
  38 H38           -6.8410     2.3947    -1.0608 H       
  39 H39           -4.6446     1.1508    -1.9046 H       
  40 H40           -4.5307     4.8256     2.2670 H       
  41 H41           -3.4326     5.4331     4.3841 H       
  42 H42           -2.0349     3.7870     5.5647 H       
  43 H43           -1.7313     1.5295     4.6325 H       
  44 H44           -2.8315     0.9098     2.5200 H       
  45 H45            3.1988     2.2592     0.3902 H       
  46 H46            2.4155     0.7858     1.0096 H       
  47 H47            2.4845     1.0873    -0.7433 H       
  48 H48           -1.0208    -8.7985    -2.8186 H       
  49 H49            0.6465    -6.6892     0.5136 H       
@<TRIPOS>BOND
   1    1    2 2
   2    1   25 1
   3    1    6 1
   4    2    3 1
   5    2   34 1
   6    3    4 1
   7    3    7 1
   8    4    5 2
   9    5    6 1
  10    5   13 1
  11    6   24 2
  12    7    8 ar
  13    7   12 ar
  14    8    9 ar
  15    8   27 1
  16    9   10 ar
  17    9   35 1
  18   10   11 ar
  19   10   28 1
  20   11   12 ar
  21   11   36 1
  22   12   37 1
  23   13   14 1
  24   13   17 2
  25   14   15 1
  26   14   18 1
  27   15   16 2
  28   16   17 1
  29   16   38 1
  30   17   39 1
  31   18   19 ar
  32   18   23 ar
  33   19   20 ar
  34   19   40 1
  35   20   21 ar
  36   20   41 1
  37   21   22 ar
  38   21   42 1
  39   22   23 ar
  40   22   43 1
  41   23   44 1
  42   25   26 1
  43   26   45 1
  44   26   46 1
  45   26   47 1
  46   28   29 1
  47   28   32 1
  48   29   30 2
  49   30   31 1
  50   30   48 1
  51   31   32 2
  52   31   33 1
  53   32   49 1

#	End of record

