#	Name: ASD01208973
#	Creating user name:	WinNT
#	Creation time:	15. 06. 2019 19:10

#	Modifying user name:	WinNT
#	Modification time:	15. 06. 2019 19:10

#	Program:	/corina/corina34_cracker 3.40 0067  02.08.2006

@<TRIPOS>MOLECULE
ASD01208973
  51   54    0    0    0
SMALL
NO_CHARGES


@<TRIPOS>ATOM
   1 C1            -2.0240     1.5052    -1.3007 C.3     
   2 C2            -2.1621    -0.0186    -1.2294 C.3     
   3 C3            -1.5631    -0.5259     0.0839 C.3     
   4 C4            -1.5371    -2.0557     0.0753 C.3     
   5 C5            -0.7768    -2.5520     1.2780 C.2     
   6 N6             0.5525    -2.3475     1.3664 N.am    
   7 C7             1.2725    -2.8997     2.4207 C.2     
   8 N8            -2.9091    -2.5676     0.1195 N.pl3   
   9 C9            -3.4263    -3.5284    -0.7096 C.ar    
  10 C10           -4.7672    -3.7177    -0.3237 C.ar    
  11 C11           -5.0067    -2.8042     0.7888 C.2     
  12 N12           -3.8993    -2.1584     1.0187 N.2     
  13 O13           -1.3610    -3.1353     2.1665 O.2     
  14 S14            3.0068    -2.7248     2.6754 S.3     
  15 C15            2.8883    -3.7083     4.1330 C.2     
  16 C16            1.6123    -4.0659     4.2932 C.2     
  17 N17            0.7729    -3.6212     3.3767 N.2     
  18 F18            3.9127    -4.0430     4.9478 F       
  19 C19           -3.6470    -0.3893    -1.2923 C.3     
  20 C20           -4.2559     0.1900    -2.5719 C.3     
  21 O21           -4.0660     1.6063    -2.5894 O.3     
  22 C22           -2.6956     2.0114    -2.5800 C.3     
  23 C23           -2.9056    -4.2755    -1.7635 C.ar    
  24 C24           -3.6969    -5.1814    -2.4107 C.ar    
  25 C25           -5.0204    -5.3698    -2.0314 C.ar    
  26 C26           -5.5576    -4.6520    -1.0025 C.ar    
  27 C27           -7.1399    -5.5813     1.1476 C.3     
  28 S28           -7.2371    -4.9007    -0.5310 S.o2    
  29 O29           -7.7918    -3.5926    -0.5074 O.2     
  30 O30           -7.7147    -5.8826    -1.4404 O.2     
  31 H31           -2.5066     1.9557    -0.4333 H       
  32 H32           -0.9681     1.7752    -1.3124 H       
  33 H33           -1.6359    -0.4721    -2.0694 H       
  34 H34           -0.5470    -0.1459     0.1905 H       
  35 H35           -2.1708    -0.1775     0.9189 H       
  36 H36           -1.0479    -2.4057    -0.8337 H       
  37 H37            1.0070    -1.8153     0.6948 H       
  38 H38           -5.9351    -2.6877     1.3281 H       
  39 H39            1.2867    -4.6767     5.1222 H       
  40 H40           -3.7517    -1.4742    -1.2978 H       
  41 H41           -4.1623     0.0229    -0.4247 H       
  42 H42           -3.7674    -0.2530    -3.4398 H       
  43 H43           -5.3222    -0.0341    -2.6009 H       
  44 H44           -2.6379     3.0993    -2.6149 H       
  45 H45           -2.1867     1.5922    -3.4480 H       
  46 H46           -1.8787    -4.1386    -2.0685 H       
  47 H47           -3.2889    -5.7583    -3.2276 H       
  48 H48           -5.6298    -6.0908    -2.5560 H       
  49 H49           -6.6353    -4.8687     1.8000 H       
  50 H50           -8.1461    -5.7681     1.5228 H       
  51 H51           -6.5799    -6.5163     1.1287 H       
@<TRIPOS>BOND
   1    1    2 1
   2    1   22 1
   3    1   31 1
   4    1   32 1
   5    2    3 1
   6    2   19 1
   7    2   33 1
   8    3    4 1
   9    3   34 1
  10    3   35 1
  11    4    5 1
  12    4    8 1
  13    4   36 1
  14    5    6 am
  15    5   13 2
  16    6    7 1
  17    6   37 1
  18    7   14 1
  19    7   17 2
  20    8    9 1
  21    8   12 1
  22    9   10 ar
  23    9   23 ar
  24   10   11 1
  25   10   26 ar
  26   11   12 2
  27   11   38 1
  28   14   15 1
  29   15   16 2
  30   15   18 1
  31   16   17 1
  32   16   39 1
  33   19   20 1
  34   19   40 1
  35   19   41 1
  36   20   21 1
  37   20   42 1
  38   20   43 1
  39   21   22 1
  40   22   44 1
  41   22   45 1
  42   23   24 ar
  43   23   46 1
  44   24   25 ar
  45   24   47 1
  46   25   26 ar
  47   25   48 1
  48   26   28 1
  49   27   28 1
  50   27   49 1
  51   27   50 1
  52   27   51 1
  53   28   29 2
  54   28   30 2

#	End of record

