#	Name: ASD00170753
#	Creating user name:	WinNT
#	Creation time:	15. 06. 2019 18:32

#	Modifying user name:	WinNT
#	Modification time:	15. 06. 2019 18:32

#	Program:	/corina/corina34_cracker 3.40 0067  02.08.2006

@<TRIPOS>MOLECULE
ASD00170753
  42   44    0    0    0
SMALL
NO_CHARGES


@<TRIPOS>ATOM
   1 C1            -0.0169     1.2078     0.0003 C.2     
   2 O2             0.6388     0.9997    -1.0046 O.2     
   3 C3             0.4747     0.7391     1.3147 C.ar    
   4 C4             1.6304    -0.0396     1.3937 C.ar    
   5 C5             2.0837    -0.4730     2.6223 C.ar    
   6 C6             1.3953    -0.1373     3.7749 C.ar    
   7 C7             0.2490     0.6339     3.7034 C.ar    
   8 C8            -0.2118     1.0785     2.4812 C.ar    
   9 C9             3.3310    -1.3142     2.7095 C.3     
  10 F10            4.4460    -0.4815     2.8530 F       
  11 F11            3.2413    -2.1680     3.8141 F       
  12 F12            3.4635    -2.0740     1.5423 F       
  13 C13           -1.3571     3.2721    -0.0187 C.2     
  14 C14           -1.2492     1.9046    -0.0887 C.2     
  15 C15           -2.5356     1.2484    -0.2639 C.2     
  16 C16           -3.5545     2.1121    -0.3204 C.2     
  17 S17           -2.9824     3.7628    -0.1615 S.3     
  18 C18           -2.6991    -0.2209    -0.3692 C.ar    
  19 C19           -3.3948    -0.9202     0.6165 C.ar    
  20 C20           -3.5438    -2.2879     0.5132 C.ar    
  21 C21           -3.0046    -2.9657    -0.5658 C.ar    
  22 C22           -2.3132    -2.2776    -1.5464 C.ar    
  23 C23           -2.1630    -0.9086    -1.4569 C.ar    
  24 C24           -4.2949    -3.0452     1.5778 C.3     
  25 F25           -5.6506    -3.1065     1.2379 F       
  26 F26           -3.7803    -4.3421     1.6786 F       
  27 F27           -4.1512    -2.3898     2.8055 F       
  28 C28           -4.9990     1.7207    -0.4973 C.3     
  29 N29           -0.2924     4.1329     0.1506 N.pl3   
  30 H30            2.1683    -0.3026     0.4949 H       
  31 H31            1.7544    -0.4791     4.7344 H       
  32 H32           -0.2839     0.8921     4.6066 H       
  33 H33           -1.1044     1.6842     2.4271 H       
  34 H34           -3.8159    -0.3922     1.4594 H       
  35 H35           -3.1238    -4.0364    -0.6425 H       
  36 H36           -1.8938    -2.8121    -2.3859 H       
  37 H37           -1.6274    -0.3716    -2.2258 H       
  38 H38           -5.4556     1.5651     0.4801 H       
  39 H39           -5.5287     2.5147    -1.0236 H       
  40 H40           -5.0573     0.7991    -1.0765 H       
  41 H41            0.5977     3.7792     0.3041 H       
  42 H42           -0.4338     5.0920     0.1160 H       
@<TRIPOS>BOND
   1    1    2 2
   2    1    3 1
   3    1   14 1
   4    3    4 ar
   5    3    8 ar
   6    4    5 ar
   7    4   30 1
   8    5    6 ar
   9    5    9 1
  10    6    7 ar
  11    6   31 1
  12    7    8 ar
  13    7   32 1
  14    8   33 1
  15    9   10 1
  16    9   11 1
  17    9   12 1
  18   13   14 2
  19   13   17 1
  20   13   29 1
  21   14   15 1
  22   15   16 2
  23   15   18 1
  24   16   17 1
  25   16   28 1
  26   18   19 ar
  27   18   23 ar
  28   19   20 ar
  29   19   34 1
  30   20   21 ar
  31   20   24 1
  32   21   22 ar
  33   21   35 1
  34   22   23 ar
  35   22   36 1
  36   23   37 1
  37   24   25 1
  38   24   26 1
  39   24   27 1
  40   28   38 1
  41   28   39 1
  42   28   40 1
  43   29   41 1
  44   29   42 1

#	End of record

