#	Name: ASD08390019
#	Creating user name:	WinNT
#	Creation time:	15. 06. 2019 21:19

#	Modifying user name:	WinNT
#	Modification time:	15. 06. 2019 21:19

#	Program:	/corina/corina34_cracker 3.40 0067  02.08.2006

@<TRIPOS>MOLECULE
ASD08390019
  55   57    0    0    0
SMALL
NO_CHARGES


@<TRIPOS>ATOM
   1 N1             0.0532     1.4509    -0.3918 N.2     
   2 C2             0.0549    -0.0147    -0.2859 C.3     
   3 C3             1.4528    -0.3480     0.2720 C.3     
   4 N4             2.0829     0.9748     0.4177 N.pl3   
   5 C5             1.1862     1.9269     0.0068 C.2     
   6 C6             3.4366     1.2298     0.9165 C.3     
   7 C7            -0.1357    -0.6423    -1.6427 C.2     
   8 O8             0.4447    -1.6644    -1.9224 O.2     
   9 O9            -0.9504    -0.0659    -2.5404 O.3     
  10 C10           -1.0364    -0.4838     0.6784 C.3     
  11 C11            4.4379     1.0911    -0.2321 C.3     
  12 C12            5.8516     1.3574     0.2888 C.3     
  13 C13            6.8378     1.2208    -0.8424 C.2     
  14 O14            6.4498     0.9392    -1.9515 O.2     
  15 O15            8.1473     1.4118    -0.6180 O.3     
  16 C16           10.4806     1.5172    -1.3073 C.3     
  17 C17            9.0394     1.2639    -1.7541 C.3     
  18 C18            1.3418    -1.0343     1.6090 C.ar    
  19 C19            1.4641    -2.4087     1.6928 C.ar    
  20 C20            1.3622    -3.0382     2.9193 C.ar    
  21 C21            1.1386    -2.2933     4.0621 C.ar    
  22 C22            1.0173    -0.9188     3.9784 C.ar    
  23 C23            1.1234    -0.2889     2.7525 C.ar    
  24 C24            1.4900     3.3762     0.0189 C.ar    
  25 C25            1.1233     4.1774    -1.0621 C.ar    
  26 C26            1.4088     5.5273    -1.0449 C.ar    
  27 C27            2.0577     6.0861     0.0416 C.ar    
  28 C28            2.4240     5.2966     1.1168 C.ar    
  29 C29            2.1389     3.9464     1.1137 C.ar    
  30 H30            2.0111    -0.9644    -0.4326 H       
  31 H31            3.4893     2.2392     1.3245 H       
  32 H32            3.6778     0.5091     1.6978 H       
  33 H33           -1.0407    -0.5054    -3.3970 H       
  34 H34           -2.0118    -0.1788     0.2995 H       
  35 H35           -1.0032    -1.5699     0.7640 H       
  36 H36           -0.8715    -0.0369     1.6588 H       
  37 H37            4.3852     0.0817    -0.6401 H       
  38 H38            4.1967     1.8119    -1.0134 H       
  39 H39            5.9043     2.3668     0.6968 H       
  40 H40            6.0927     0.6367     1.0701 H       
  41 H41           10.7533     0.7979    -0.5351 H       
  42 H42           11.1502     1.4062    -2.1601 H       
  43 H43           10.5649     2.5281    -0.9084 H       
  44 H44            8.9550     0.2530    -2.1530 H       
  45 H45            8.7666     1.9832    -2.5263 H       
  46 H46            1.6388    -2.9907     0.7999 H       
  47 H47            1.4570    -4.1121     2.9846 H       
  48 H48            1.0583    -2.7852     5.0202 H       
  49 H49            0.8422    -0.3369     4.8712 H       
  50 H50            1.0324     0.7853     2.6877 H       
  51 H51            0.6173     3.7421    -1.9111 H       
  52 H52            1.1253     6.1488    -1.8814 H       
  53 H53            2.2796     7.1431     0.0502 H       
  54 H54            2.9304     5.7385     1.9622 H       
  55 H55            2.4213     3.3318     1.9557 H       
@<TRIPOS>BOND
   1    1    2 1
   2    1    5 2
   3    2    7 1
   4    2   10 1
   5    2    3 1
   6    3    4 1
   7    3   18 1
   8    3   30 1
   9    4    5 1
  10    4    6 1
  11    5   24 1
  12    6   11 1
  13    6   31 1
  14    6   32 1
  15    7    8 2
  16    7    9 1
  17    9   33 1
  18   10   34 1
  19   10   35 1
  20   10   36 1
  21   11   12 1
  22   11   37 1
  23   11   38 1
  24   12   13 1
  25   12   39 1
  26   12   40 1
  27   13   14 2
  28   13   15 1
  29   15   17 1
  30   16   17 1
  31   16   41 1
  32   16   42 1
  33   16   43 1
  34   17   44 1
  35   17   45 1
  36   18   19 ar
  37   18   23 ar
  38   19   20 ar
  39   19   46 1
  40   20   21 ar
  41   20   47 1
  42   21   22 ar
  43   21   48 1
  44   22   23 ar
  45   22   49 1
  46   23   50 1
  47   24   25 ar
  48   24   29 ar
  49   25   26 ar
  50   25   51 1
  51   26   27 ar
  52   26   52 1
  53   27   28 ar
  54   27   53 1
  55   28   29 ar
  56   28   54 1
  57   29   55 1

#	End of record

