#	Name: ASD04910334
#	Creating user name:	WinNT
#	Creation time:	15. 06. 2019 20:55

#	Modifying user name:	WinNT
#	Modification time:	15. 06. 2019 20:55

#	Program:	/corina/corina34_cracker 3.40 0067  02.08.2006

@<TRIPOS>MOLECULE
ASD04910334
  51   53    0    0    0
SMALL
NO_CHARGES


@<TRIPOS>ATOM
   1 C1             0.6720     1.7652    -0.0123 C.2     
   2 C2             0.5463     0.2969     0.0226 C.ar    
   3 C3             1.6881    -0.5175    -0.0440 C.ar    
   4 C4             1.5242    -1.8755    -0.0079 C.ar    
   5 C5             0.2393    -2.4070     0.0931 C.ar    
   6 N6            -0.8229    -1.6155     0.1545 N.ar    
   7 C7            -0.7096    -0.3040     0.1282 C.ar    
   8 O8             1.7697     2.2791    -0.0992 O.2     
   9 O9            -0.4307     2.5374     0.0467 O.3     
  10 N10            0.0699    -3.7804     0.1294 N.pl3   
  11 C11            1.2223    -4.6657    -0.0562 C.3     
  12 C12            1.9102    -4.8967     1.2908 C.3     
  13 C13            3.1768    -5.7287     1.0805 C.3     
  14 C14            4.1875    -4.9215     0.2633 C.3     
  15 C15            0.7569    -5.9854    -0.6154 C.ar    
  16 C16            1.5024    -6.6234    -1.5897 C.ar    
  17 C17            1.0785    -7.8331    -2.1042 C.ar    
  18 C18           -0.0974    -8.4086    -1.6418 C.ar    
  19 C19           -0.8435    -7.7659    -0.6632 C.ar    
  20 C20           -0.4119    -6.5587    -0.1492 C.ar    
  21 N21           -0.5305    -9.6360    -2.1623 N.pl3   
  22 N22            0.1207   -10.3897    -3.1474 N.2     
  23 C23           -0.5847   -11.4695    -3.3693 C.2     
  24 C24           -1.7068   -11.4391    -2.5341 C.2     
  25 C25           -1.6479   -10.3050    -1.7983 C.2     
  26 C26           -2.7872   -12.4873    -2.4624 C.3     
  27 F27           -2.5010   -13.5147    -3.3677 F       
  28 F28           -2.8441   -13.0104    -1.1661 F       
  29 F29           -4.0195   -11.9098    -2.7866 F       
  30 C30            3.7858    -6.0828     2.4387 C.3     
  31 H31            2.6733    -0.0819    -0.1224 H       
  32 H32            2.3822    -2.5295    -0.0576 H       
  33 H33           -1.5951     0.3116     0.1847 H       
  34 H34           -0.2980     3.4949     0.0206 H       
  35 H35           -0.8118    -4.1565     0.2778 H       
  36 H36            1.9262    -4.2053    -0.7495 H       
  37 H37            2.1756    -3.9363     1.7326 H       
  38 H38            1.2325    -5.4289     1.9583 H       
  39 H39            2.9254    -6.6444     0.5453 H       
  40 H40            5.0804    -5.5230     0.0932 H       
  41 H41            3.7451    -4.6489    -0.6948 H       
  42 H42            4.4570    -4.0174     0.8094 H       
  43 H43            2.4170    -6.1752    -1.9490 H       
  44 H44            1.6608    -8.3306    -2.8656 H       
  45 H45           -1.7586    -8.2111    -0.3016 H       
  46 H46           -0.9900    -6.0601     0.6148 H       
  47 H47           -0.3426   -12.2495    -4.0761 H       
  48 H48           -2.3655    -9.9897    -1.0553 H       
  49 H49            3.0658    -6.6579     3.0209 H       
  50 H50            4.6882    -6.6755     2.2889 H       
  51 H51            4.0372    -5.1671     2.9739 H       
@<TRIPOS>BOND
   1    1    2 1
   2    1    8 2
   3    1    9 1
   4    2    3 ar
   5    2    7 ar
   6    3    4 ar
   7    3   31 1
   8    4    5 ar
   9    4   32 1
  10    5    6 ar
  11    5   10 1
  12    6    7 ar
  13    7   33 1
  14    9   34 1
  15   10   11 1
  16   10   35 1
  17   11   12 1
  18   11   15 1
  19   11   36 1
  20   12   13 1
  21   12   37 1
  22   12   38 1
  23   13   14 1
  24   13   30 1
  25   13   39 1
  26   14   40 1
  27   14   41 1
  28   14   42 1
  29   15   16 ar
  30   15   20 ar
  31   16   17 ar
  32   16   43 1
  33   17   18 ar
  34   17   44 1
  35   18   19 ar
  36   18   21 1
  37   19   20 ar
  38   19   45 1
  39   20   46 1
  40   21   22 1
  41   21   25 1
  42   22   23 2
  43   23   24 1
  44   23   47 1
  45   24   25 2
  46   24   26 1
  47   25   48 1
  48   26   27 1
  49   26   28 1
  50   26   29 1
  51   30   49 1
  52   30   50 1
  53   30   51 1

#	End of record

