#	Name: ASD02030066
#	Creating user name:	WinNT
#	Creation time:	15. 06. 2019 20:14

#	Modifying user name:	WinNT
#	Modification time:	15. 06. 2019 20:14

#	Program:	/corina/corina34_cracker 3.40 0067  02.08.2006

@<TRIPOS>MOLECULE
ASD02030066
  76   80    0    0    0
SMALL
NO_CHARGES


@<TRIPOS>ATOM
   1 C1            -0.5935     1.4640    -0.1359 C.ar    
   2 C2            -0.5798    -0.0109    -0.1473 C.2     
   3 N3             0.0001    -0.6716    -1.1688 N.am    
   4 C4             0.1116    -2.0599    -1.1267 C.ar    
   5 O5            -1.0918    -0.6306     0.7650 O.2     
   6 C6             0.0009    -2.7988    -2.2979 C.ar    
   7 C7             0.1121    -4.1776    -2.2566 C.ar    
   8 C8             0.3364    -4.8199    -1.0281 C.ar    
   9 C9             0.4455    -4.0612     0.1421 C.ar    
  10 C10            0.3395    -2.7012     0.0887 C.ar    
  11 C11            0.4559    -6.2853    -0.9719 C.2     
  12 O12            0.6712    -6.8992     0.2086 O.3     
  13 O13            0.3603    -6.9423    -1.9900 O.2     
  14 C14            0.7784    -8.3471     0.1888 C.3     
  15 C15           -0.6081    -8.9966     0.4224 C.3     
  16 C16           -0.2411   -10.3995     0.9667 C.3     
  17 C17            0.9842   -10.1465     1.8691 C.3     
  18 C18            1.6324    -8.8416     1.3745 C.3     
  19 N19            3.0048    -9.0995     0.9315 N.am    
  20 C20            4.0166    -9.0725     1.8215 C.2     
  21 O21            3.7903    -8.8342     2.9920 O.2     
  22 C22            5.3993    -9.3324     1.3750 C.ar    
  23 C23            6.4496    -9.3049     2.2962 C.ar    
  24 C24            7.7382    -9.5478     1.8758 C.ar    
  25 C25            7.9948    -9.8201     0.5371 C.ar    
  26 C26            6.9528    -9.8479    -0.3824 C.ar    
  27 C27            5.6606    -9.6121     0.0312 C.ar    
  28 O28            0.0044    -4.9048    -3.3966 O.3     
  29 C29            0.4550     2.1740     0.4650 C.ar    
  30 C30            0.4320     3.5608     0.4694 C.ar    
  31 C31           -0.6195     4.2374    -0.1160 C.ar    
  32 C32           -1.6578     3.5392    -0.7111 C.ar    
  33 C33           -1.6487     2.1615    -0.7293 C.ar    
  34 O34            1.4873     1.5078     1.0402 O.3     
  35 O35            9.2661   -10.0589     0.1267 O.3     
  36 C36            9.4588   -10.3319    -1.2627 C.3     
  37 C37           10.9227   -10.5703    -1.5295 C.ar    
  38 C38           11.4418   -11.8485    -1.4434 C.ar    
  39 C39           12.7846   -12.0672    -1.6880 C.ar    
  40 C40           13.6083   -11.0076    -2.0194 C.ar    
  41 C41           13.0890    -9.7294    -2.1064 C.ar    
  42 C42           11.7453    -9.5115    -1.8660 C.ar    
  43 S43           -2.9727     1.2805    -1.4879 S.o2    
  44 O44           -2.6788     1.2327    -2.8773 O.2     
  45 O45           -3.1860     0.1186    -0.6982 O.2     
  46 O46           -4.2240     2.1346    -1.3425 O.3     
  47 H47            0.3398    -0.1807    -1.9333 H       
  48 H48           -0.1720    -2.2980    -3.2390 H       
  49 H49            0.6177    -4.5519     1.0887 H       
  50 H50            0.4244    -2.1199     0.9950 H       
  51 H51            1.2032    -8.6844    -0.7567 H       
  52 H52           -1.1792    -8.4333     1.1604 H       
  53 H53           -1.1595    -9.0778    -0.5144 H       
  54 H54           -1.0656   -10.8104     1.5493 H       
  55 H55            0.0201   -11.0700     0.1480 H       
  56 H56            0.6677   -10.0364     2.9063 H       
  57 H57            1.6907   -10.9717     1.7795 H       
  58 H58            1.6305    -8.0982     2.1717 H       
  59 H59            3.1853    -9.2896    -0.0024 H       
  60 H60            6.2511    -9.0931     3.3365 H       
  61 H61            8.5506    -9.5264     2.5871 H       
  62 H62            7.1562   -10.0594    -1.4217 H       
  63 H63            4.8515    -9.6342    -0.6838 H       
  64 H64            0.8452    -5.0491    -3.8520 H       
  65 H65            1.2375     4.1121     0.9315 H       
  66 H66           -0.6330     5.3173    -0.1097 H       
  67 H67           -2.4760     4.0774    -1.1664 H       
  68 H68            2.2211     1.3240     0.4378 H       
  69 H69            8.8896   -11.2189    -1.5411 H       
  70 H70            9.1161    -9.4808    -1.8512 H       
  71 H71           10.7983   -12.6764    -1.1845 H       
  72 H72           13.1903   -13.0658    -1.6200 H       
  73 H73           14.6575   -11.1783    -2.2099 H       
  74 H74           13.7325    -8.9016    -2.3650 H       
  75 H75           11.3388    -8.5134    -1.9377 H       
  76 H76           -5.0172     1.7393    -1.7292 H       
@<TRIPOS>BOND
   1    1    2 1
   2    1   29 ar
   3    1   33 ar
   4    2    3 am
   5    2    5 2
   6    3    4 1
   7    3   47 1
   8    4    6 ar
   9    4   10 ar
  10    6    7 ar
  11    6   48 1
  12    7    8 ar
  13    7   28 1
  14    8    9 ar
  15    8   11 1
  16    9   10 ar
  17    9   49 1
  18   10   50 1
  19   11   12 1
  20   11   13 2
  21   12   14 1
  22   14   15 1
  23   14   18 1
  24   14   51 1
  25   15   16 1
  26   15   52 1
  27   15   53 1
  28   16   17 1
  29   16   54 1
  30   16   55 1
  31   17   18 1
  32   17   56 1
  33   17   57 1
  34   18   19 1
  35   18   58 1
  36   19   20 am
  37   19   59 1
  38   20   21 2
  39   20   22 1
  40   22   23 ar
  41   22   27 ar
  42   23   24 ar
  43   23   60 1
  44   24   25 ar
  45   24   61 1
  46   25   26 ar
  47   25   35 1
  48   26   27 ar
  49   26   62 1
  50   27   63 1
  51   28   64 1
  52   29   30 ar
  53   29   34 1
  54   30   31 ar
  55   30   65 1
  56   31   32 ar
  57   31   66 1
  58   32   33 ar
  59   32   67 1
  60   33   43 1
  61   34   68 1
  62   35   36 1
  63   36   37 1
  64   36   69 1
  65   36   70 1
  66   37   38 ar
  67   37   42 ar
  68   38   39 ar
  69   38   71 1
  70   39   40 ar
  71   39   72 1
  72   40   41 ar
  73   40   73 1
  74   41   42 ar
  75   41   74 1
  76   42   75 1
  77   43   44 2
  78   43   45 2
  79   43   46 1
  80   46   76 1

#	End of record

