#	Name: ASD02690018
#	Creating user name:	WinNT
#	Creation time:	15. 06. 2019 20:26

#	Modifying user name:	WinNT
#	Modification time:	15. 06. 2019 20:26

#	Program:	/corina/corina34_cracker 3.40 0067  02.08.2006

@<TRIPOS>MOLECULE
ASD02690018
  68   70    0    0    0
SMALL
NO_CHARGES


@<TRIPOS>ATOM
   1 C1            -1.3347     2.2115    -0.4729 C.3     
   2 N2            -0.9599     0.7918    -0.4954 N.3     
   3 C3            -0.3286     0.4295    -1.7708 C.3     
   4 C4             0.9572     1.2390    -1.9532 C.3     
   5 C5             0.6210     2.7327    -1.9349 C.3     
   6 C6            -0.0789     3.0743    -0.6166 C.3     
   7 C7             3.0267     5.6473    -2.7124 C.ar    
   8 C8             1.8486     4.8986    -2.6006 C.ar    
   9 C9             1.8904     3.5361    -2.0541 C.2     
  10 C10            2.9821     6.9191    -3.2229 C.ar    
  11 C11            1.7695     7.4659    -3.6289 C.ar    
  12 C12            0.5966     6.7265    -3.5204 C.ar    
  13 C13            0.6303     5.4538    -3.0113 C.ar    
  14 C14           -2.1222    -0.0638    -0.2214 C.3     
  15 C15           -1.7135    -1.5353    -0.3419 C.3     
  16 N16           -2.8491    -2.3760     0.0609 N.am    
  17 C17           -3.4736    -2.1399     1.3697 C.3     
  18 C18           -3.8626    -0.6616     1.4710 C.3     
  19 C19           -2.6319     0.2055     1.1962 C.3     
  20 C20           -3.3095    -3.3450    -0.7548 C.2     
  21 C21           -2.7291    -3.5131    -2.1041 C.ar    
  22 C22           -1.3479    -3.3991    -2.3042 C.ar    
  23 O23           -1.6060    -0.1115     2.1392 O.3     
  24 O24            2.9467     3.0575    -1.6986 O.2     
  25 O25            1.7307     8.7249    -4.1329 O.3     
  26 C26           -3.5477    -3.7935    -3.1986 C.ar    
  27 N27           -3.0308    -3.9437    -4.4005 N.ar    
  28 C28           -1.7342    -3.8370    -4.6196 C.ar    
  29 C29           -0.8552    -3.5656    -3.5863 C.ar    
  30 C30            0.4527     9.2253    -4.5308 C.3     
  31 O31           -4.2020    -4.0809    -0.3812 O.2     
  32 H32           -2.0153     2.4206    -1.2982 H       
  33 H33           -1.8276     2.4421     0.4716 H       
  34 H34           -0.0909    -0.6343    -1.7690 H       
  35 H35           -1.0140     0.6469    -2.5900 H       
  36 H36            1.6486     1.0117    -1.1418 H       
  37 H37            1.4173     0.9812    -2.9071 H       
  38 H38           -0.0396     2.9677    -2.7695 H       
  39 H39           -0.3590     4.1277    -0.6155 H       
  40 H40            0.5962     2.8758     0.2159 H       
  41 H41            3.9682     5.2253    -2.3930 H       
  42 H42            3.8901     7.4973    -3.3095 H       
  43 H43           -0.3426     7.1559    -3.8365 H       
  44 H44           -0.2811     4.8804    -2.9275 H       
  45 H45           -2.9121     0.1544    -0.9401 H       
  46 H46           -1.4435    -1.7562    -1.3746 H       
  47 H47           -0.8630    -1.7329     0.3106 H       
  48 H48           -4.3650    -2.7597     1.4664 H       
  49 H49           -2.7667    -2.3868     2.1618 H       
  50 H50           -4.6365    -0.4380     0.7367 H       
  51 H51           -4.2390    -0.4522     2.4723 H       
  52 H52           -2.9003     1.2576     1.2919 H       
  53 H53           -0.6844    -3.1865    -1.4790 H       
  54 H54           -1.8594     0.0364     3.0606 H       
  55 H55           -4.6144    -3.8887    -3.0588 H       
  56 H56           -1.3523    -3.9679    -5.6213 H       
  57 H57            0.2041    -3.4808    -3.7790 H       
  58 H58           -0.2181     9.2330    -3.6716 H       
  59 H59            0.5630    10.2394    -4.9147 H       
  60 H60            0.0382     8.5851    -5.3096 H       
  61 C61           10.2676    19.3508     8.0745 C.1     
  62 C62           10.2835    18.1769     8.0681 C.1     
  63 O63           10.2492    20.7056     8.0820 O.3     
  64 O64           10.3019    16.8220     8.0606 O.3     
  65 O65           11.5829    21.3213     8.0726 O.3     
  66 O66            8.9682    16.2063     8.0701 O.3     
  67 H67           11.5698    22.2882     8.0779 H       
  68 H68            8.9813    15.2394     8.0647 H       
@<TRIPOS>BOND
   1    1    2 1
   2    1    6 1
   3    1   32 1
   4    1   33 1
   5    2    3 1
   6    2   14 1
   7    3    4 1
   8    3   34 1
   9    3   35 1
  10    4    5 1
  11    4   36 1
  12    4   37 1
  13    5    6 1
  14    5    9 1
  15    5   38 1
  16    6   39 1
  17    6   40 1
  18    7    8 ar
  19    7   10 ar
  20    7   41 1
  21    8    9 1
  22    8   13 ar
  23    9   24 2
  24   10   11 ar
  25   10   42 1
  26   11   12 ar
  27   11   25 1
  28   12   13 ar
  29   12   43 1
  30   13   44 1
  31   14   15 1
  32   14   19 1
  33   14   45 1
  34   15   16 1
  35   15   46 1
  36   15   47 1
  37   16   17 1
  38   16   20 am
  39   17   18 1
  40   17   48 1
  41   17   49 1
  42   18   19 1
  43   18   50 1
  44   18   51 1
  45   19   23 1
  46   19   52 1
  47   20   21 1
  48   20   31 2
  49   21   26 ar
  50   21   22 ar
  51   22   29 ar
  52   22   53 1
  53   23   54 1
  54   25   30 1
  55   26   27 ar
  56   26   55 1
  57   27   28 ar
  58   28   29 ar
  59   28   56 1
  60   29   57 1
  61   30   58 1
  62   30   59 1
  63   30   60 1
  64   61   62 3
  65   61   63 1
  66   62   64 1
  67   63   65 1
  68   64   66 1
  69   65   67 1
  70   66   68 1

#	End of record

