#	Name: ASD09740062
#	Creating user name:	WinNT
#	Creation time:	15. 06. 2019 21:22

#	Modifying user name:	WinNT
#	Modification time:	15. 06. 2019 21:22

#	Program:	/corina/corina34_cracker 3.40 0067  02.08.2006

@<TRIPOS>MOLECULE
ASD09740062
  38   40    0    0    0
SMALL
NO_CHARGES


@<TRIPOS>ATOM
   1 N1            -0.0144     1.2085     0.0087 N.2     
   2 O2             0.0021    -0.0041     0.0020 O.3     
   3 C3             1.2057     1.6798    -0.0004 C.2     
   4 N4             2.0455     0.6239    -0.0141 N.2     
   5 C5             1.2699    -0.4439    -0.0125 C.2     
   6 C6             1.7129    -1.8543    -0.0235 C.ar    
   7 C7             1.5950     3.1130     0.0031 C.ar    
   8 C8             0.7714    -2.8846    -0.0202 C.ar    
   9 C9             3.0742    -2.1612    -0.0432 C.ar    
  10 C10            3.4809    -3.4795    -0.0539 C.ar    
  11 C11            2.5426    -4.4962    -0.0452 C.ar    
  12 C12            1.1914    -4.1987    -0.0310 C.ar    
  13 C13            0.6263     4.1194     0.0178 C.ar    
  14 C14            1.0315     5.4391     0.0211 C.ar    
  15 N15            2.3122     5.7539     0.0101 N.ar    
  16 C16            3.2577     4.8345    -0.0039 C.ar    
  17 C17            2.9397     3.4912    -0.0023 C.ar    
  18 C18            2.9941    -5.9339    -0.0575 C.3     
  19 C19            3.1669    -6.4265     1.3807 C.3     
  20 C20            3.6253    -7.8862     1.3682 C.3     
  21 C21            3.7981    -8.3788     2.8063 C.3     
  22 H22           -0.2836    -2.6537    -0.0087 H       
  23 H23            3.8077    -1.3685    -0.0504 H       
  24 H24            4.5340    -3.7183    -0.0695 H       
  25 H25            0.4640    -4.9969    -0.0243 H       
  26 H26           -0.4242     3.8688     0.0261 H       
  27 H27            0.2899     6.2241     0.0324 H       
  28 H28            4.2945     5.1367    -0.0125 H       
  29 H29            3.7191     2.7436    -0.0135 H       
  30 H30            2.2468    -6.5451    -0.5636 H       
  31 H31            3.9448    -6.0116    -0.5849 H       
  32 H32            3.9141    -5.8153     1.8868 H       
  33 H33            2.2161    -6.3488     1.9080 H       
  34 H34            2.8780    -8.4973     0.8621 H       
  35 H35            4.5760    -7.9639     0.8408 H       
  36 H36            4.5453    -7.7676     3.3124 H       
  37 H37            2.8473    -8.3010     3.3337 H       
  38 H38            4.1247    -9.4187     2.7974 H       
@<TRIPOS>BOND
   1    1    2 1
   2    1    3 2
   3    2    5 1
   4    3    4 1
   5    3    7 1
   6    4    5 2
   7    5    6 1
   8    6    8 ar
   9    6    9 ar
  10    7   13 ar
  11    7   17 ar
  12    8   12 ar
  13    8   22 1
  14    9   10 ar
  15    9   23 1
  16   10   11 ar
  17   10   24 1
  18   11   12 ar
  19   11   18 1
  20   12   25 1
  21   13   14 ar
  22   13   26 1
  23   14   15 ar
  24   14   27 1
  25   15   16 ar
  26   16   17 ar
  27   16   28 1
  28   17   29 1
  29   18   19 1
  30   18   30 1
  31   18   31 1
  32   19   20 1
  33   19   32 1
  34   19   33 1
  35   20   21 1
  36   20   34 1
  37   20   35 1
  38   21   36 1
  39   21   37 1
  40   21   38 1

#	End of record

