#	Name: ASD01320154
#	Creating user name:	WinNT
#	Creation time:	15. 06. 2019 19:16

#	Modifying user name:	WinNT
#	Modification time:	15. 06. 2019 19:16

#	Program:	/corina/corina34_cracker 3.40 0067  02.08.2006

@<TRIPOS>MOLECULE
ASD01320154
  38   40    0    0    0
SMALL
NO_CHARGES


@<TRIPOS>ATOM
   1 Cl1            4.5827    -9.8871    -1.4354 Cl      
   2 C2            -0.2858     1.2644     0.1135 C.ar    
   3 N3             1.2376    -2.0786    -0.0205 N.am    
   4 O4             3.0967    -1.8889    -1.2222 O.2     
   5 C5            -0.1567    -0.1076     0.0214 C.ar    
   6 N6             1.6788    -4.9905    -0.0353 N.pl3   
   7 O7             1.7355     4.1853    -0.3906 O.3     
   8 C8             0.6928     3.5548     0.3560 C.3     
   9 O9             0.5345     5.3817     1.9302 O.3     
  10 C10            1.1033    -0.6899     0.0719 C.ar    
  11 C11            0.8376     2.0581     0.2558 C.ar    
  12 C12            2.3030    -2.6122    -0.6504 C.2     
  13 C13            2.5059    -4.0683    -0.6466 C.2     
  14 C14            3.5376    -4.7215    -1.2431 C.2     
  15 C15            2.0934     1.4815     0.3069 C.ar    
  16 C16            2.2296     0.1103     0.2149 C.ar    
  17 C17            2.1895    -6.2503    -0.2444 C.ar    
  18 C18            3.3654    -6.1067    -1.0061 C.ar    
  19 C19            1.7728    -7.5224     0.1383 C.ar    
  20 C20            4.0997    -7.2434    -1.3694 C.ar    
  21 C21            2.5103    -8.6245    -0.2312 C.ar    
  22 C22            3.6709    -8.4807    -0.9832 C.ar    
  23 C23            0.7874     3.9793     1.8228 C.3     
  24 H24           -1.2649     1.7181     0.0698 H       
  25 H25            0.5640    -2.6580     0.3687 H       
  26 H26           -1.0344    -0.7270    -0.0893 H       
  27 H27            0.8728    -4.7834     0.4630 H       
  28 H28            2.6263     3.9637    -0.0863 H       
  29 H29           -0.2747     3.8541    -0.0472 H       
  30 H30            0.5781     5.7211     2.8346 H       
  31 H31            4.3440    -4.2657    -1.7983 H       
  32 H32            2.9688     2.1043     0.4181 H       
  33 H33            3.2107    -0.3394     0.2549 H       
  34 H34            0.8728    -7.6443     0.7227 H       
  35 H35            5.0023    -7.1411    -1.9537 H       
  36 H36            2.1849    -9.6102     0.0669 H       
  37 H37            0.0491     3.4311     2.4081 H       
  38 H38            1.7861     3.7603     2.2008 H       
@<TRIPOS>BOND
   1    1   22 1
   2    2    5 ar
   3    2   11 ar
   4    2   24 1
   5    3   10 1
   6    3   12 am
   7    3   25 1
   8    4   12 2
   9    5   10 ar
  10    5   26 1
  11    6   13 1
  12    6   17 1
  13    6   27 1
  14    7    8 1
  15    7   28 1
  16    8   11 1
  17    8   23 1
  18    8   29 1
  19    9   23 1
  20    9   30 1
  21   10   16 ar
  22   11   15 ar
  23   12   13 1
  24   13   14 2
  25   14   18 1
  26   14   31 1
  27   15   16 ar
  28   15   32 1
  29   16   33 1
  30   17   18 ar
  31   17   19 ar
  32   18   20 ar
  33   19   21 ar
  34   19   34 1
  35   20   22 ar
  36   20   35 1
  37   21   22 ar
  38   21   36 1
  39   23   37 1
  40   23   38 1

#	End of record

