#	Name: ASD09800055
#	Creating user name:	WinNT
#	Creation time:	15. 06. 2019 21:24

#	Modifying user name:	WinNT
#	Modification time:	15. 06. 2019 21:24

#	Program:	/corina/corina34_cracker 3.40 0067  02.08.2006

@<TRIPOS>MOLECULE
ASD09800055
  65   71    0    0    0
SMALL
NO_CHARGES


@<TRIPOS>ATOM
   1 C1            -3.1006     1.5590     3.1171 C.2     
   2 N2            -3.9146     0.6258     3.5760 N.2     
   3 C3            -4.2514    -0.4327     2.8277 C.2     
   4 C4            -3.7774    -0.5930     1.5788 C.2     
   5 C5            -2.5793     1.4430     1.8126 C.2     
   6 C6            -1.7241     2.2114     1.0301 C.2     
   7 N7            -2.9244     0.3466     1.0444 N.pl3   
   8 C8            -2.3008     0.4782    -0.1402 C.2     
   9 N9            -1.5944     1.5797    -0.1482 N.2     
  10 C10           -1.0808     3.4823     1.4206 C.ar    
  11 C11           -1.1804     5.9019     1.7607 C.ar    
  12 C12            0.1708     5.8800     2.1679 C.ar    
  13 C13            0.8622     4.6862     2.1901 C.ar    
  14 C14            0.2468     3.4985     1.8209 C.ar    
  15 C15           -1.8142     4.6939     1.3832 C.ar    
  16 N16           -2.7665     2.6452     3.9086 N.pl3   
  17 C17           -2.3977    -0.4980    -1.2842 C.3     
  18 C18           -3.7811    -0.7393    -1.8916 C.3     
  19 C19           -2.7350     0.0647    -2.6664 C.3     
  20 C20           -1.4370    -1.6870    -1.2202 C.3     
  21 C21           -1.9077     7.1023     1.7220 C.ar    
  22 C22           -3.1562     4.7175     0.9784 C.ar    
  23 C23           -3.8330     5.8998     0.9533 C.ar    
  24 C24           -3.2101     7.0890     1.3242 C.ar    
  25 N25            0.8079     7.0646     2.5427 N.am    
  26 C26            1.5415     7.9611     1.6367 C.3     
  27 C27            2.0327     9.0952     2.5573 C.3     
  28 N28            1.5237     8.7172     3.8842 N.am    
  29 C29            0.8431     7.5679     3.7835 C.2     
  30 C30            1.7150     9.4457     5.0636 C.ar    
  31 O31            0.3090     7.0283     4.7332 O.2     
  32 C32            2.7193    11.2851     6.2288 C.ar    
  33 C33            2.0939    10.8854     7.3958 C.ar    
  34 C34            1.2839     9.7649     7.4007 C.ar    
  35 C35            1.0927     9.0439     6.2380 C.ar    
  36 C36            2.5322    10.5687     5.0632 C.ar    
  37 C37            3.6013    12.5070     6.2280 C.3     
  38 F38            3.6309    13.0617     7.5120 F       
  39 F39            4.8978    12.1460     5.8459 F       
  40 F40            3.0940    13.4477     5.3252 F       
  41 H41           -4.9195    -1.1760     3.2370 H       
  42 H42           -4.0649    -1.4564     0.9971 H       
  43 H43            1.8961     4.6754     2.5022 H       
  44 H44            0.8080     2.5761     1.8459 H       
  45 H45           -3.1122     2.7111     4.8125 H       
  46 H46           -2.1869     3.3400     3.5591 H       
  47 H47           -4.0066    -1.7451    -2.2461 H       
  48 H48           -4.6210    -0.1920    -1.4638 H       
  49 H49           -2.8868     1.1410    -2.7483 H       
  50 H50           -2.2724    -0.4121    -3.5305 H       
  51 H51           -1.6905    -2.3133    -0.3649 H       
  52 H52           -1.5211    -2.2717    -2.1362 H       
  53 H53           -0.4151    -1.3232    -1.1139 H       
  54 H54           -1.4366     8.0317     2.0063 H       
  55 H55           -3.6513     3.8027     0.6876 H       
  56 H56           -4.8668     5.9150     0.6411 H       
  57 H57           -3.7675     8.0136     1.2952 H       
  58 H58            2.3867     7.4413     1.1857 H       
  59 H59            0.8775     8.3539     0.8667 H       
  60 H60            3.1218     9.1384     2.5634 H       
  61 H61            1.6126    10.0510     2.2444 H       
  62 H62            2.2418    11.4473     8.3061 H       
  63 H63            0.7969     9.4553     8.3136 H       
  64 H64            0.4596     8.1690     6.2424 H       
  65 H65            3.0211    10.8811     4.1523 H       
@<TRIPOS>BOND
   1    1    2 2
   2    1   16 1
   3    1    5 1
   4    2    3 1
   5    3    4 2
   6    3   41 1
   7    4    7 1
   8    4   42 1
   9    5    7 1
  10    5    6 2
  11    6    9 1
  12    6   10 1
  13    7    8 1
  14    8    9 2
  15    8   17 1
  16   10   15 ar
  17   10   14 ar
  18   11   12 ar
  19   11   15 ar
  20   11   21 ar
  21   12   13 ar
  22   12   25 1
  23   13   14 ar
  24   13   43 1
  25   14   44 1
  26   15   22 ar
  27   16   45 1
  28   16   46 1
  29   17   18 1
  30   17   19 1
  31   17   20 1
  32   18   19 1
  33   18   47 1
  34   18   48 1
  35   19   49 1
  36   19   50 1
  37   20   51 1
  38   20   52 1
  39   20   53 1
  40   21   24 ar
  41   21   54 1
  42   22   23 ar
  43   22   55 1
  44   23   24 ar
  45   23   56 1
  46   24   57 1
  47   25   26 1
  48   25   29 am
  49   26   27 1
  50   26   58 1
  51   26   59 1
  52   27   28 1
  53   27   60 1
  54   27   61 1
  55   28   29 am
  56   28   30 1
  57   29   31 2
  58   30   36 ar
  59   30   35 ar
  60   32   33 ar
  61   32   36 ar
  62   32   37 1
  63   33   34 ar
  64   33   62 1
  65   34   35 ar
  66   34   63 1
  67   35   64 1
  68   36   65 1
  69   37   38 1
  70   37   39 1
  71   37   40 1

#	End of record

