#	Name: ASD03430389
#	Creating user name:	WinNT
#	Creation time:	15. 06. 2019 20:41

#	Modifying user name:	WinNT
#	Modification time:	15. 06. 2019 20:41

#	Program:	/corina/corina34_cracker 3.40 0067  02.08.2006

@<TRIPOS>MOLECULE
ASD03430389
  56   61    0    0    0
SMALL
NO_CHARGES


@<TRIPOS>ATOM
   1 N1            -0.0156     1.4930     0.4899 N.am    
   2 C2             0.0409     0.2262     0.9343 C.2     
   3 C3             1.4804    -0.0493     1.3134 C.3     
   4 C4             2.1951     1.2477     1.0111 C.ar    
   5 C5             3.5079     1.6438     1.1354 C.ar    
   6 C6             3.8795     2.9278     0.7697 C.ar    
   7 C7             2.9271     3.8065     0.2808 C.ar    
   8 C8             1.6118     3.4102     0.1566 C.ar    
   9 C9             1.2316     2.1203     0.5221 C.ar    
  10 O10           -0.8870    -0.5505     1.0164 O.2     
  11 O11            1.8014    -1.0820     6.8459 O.3     
  12 C12            0.8796    -0.1251     7.3948 C.3     
  13 C13            0.8568     0.9857     6.3183 C.3     
  14 C14            1.2479     0.2192     5.0693 C.ar    
  15 C15            1.7884    -0.9909     5.4876 C.ar    
  16 C16            2.2222    -1.9015     4.5290 C.ar    
  17 C17            2.1208    -1.5964     3.1822 C.ar    
  18 C18            1.5861    -0.3811     2.7796 C.ar    
  19 C19            1.1508     0.5247     3.7297 C.ar    
  20 O20            2.5472    -2.4902     2.2515 O.3     
  21 F21            5.1663     3.3213     0.8902 F       
  22 C22           -1.2433     2.1397     0.0198 C.3     
  23 C23           -0.9991     2.7580    -1.3327 C.ar    
  24 C24           -1.5149     4.0067    -1.6251 C.ar    
  25 C25           -1.2910     4.5738    -2.8657 C.ar    
  26 C26           -0.5509     3.8924    -3.8137 C.ar    
  27 C27           -0.0343     2.6441    -3.5210 C.ar    
  28 C28           -0.2546     2.0788    -2.2789 C.ar    
  29 C29           -2.3419     1.1138    -0.0878 C.ar    
  30 C30           -3.4805     1.2365     0.6865 C.ar    
  31 C31           -4.4882     0.2955     0.5878 C.ar    
  32 C32           -4.3576    -0.7681    -0.2855 C.ar    
  33 C33           -3.2195    -0.8903    -1.0605 C.ar    
  34 C34           -2.2136     0.0531    -0.9650 C.ar    
  35 H35            1.8865    -0.8592     0.7074 H       
  36 H36            4.2468     0.9550     1.5175 H       
  37 H37            3.2158     4.8073    -0.0044 H       
  38 H38            0.8747     4.1011    -0.2252 H       
  39 H39           -0.1096    -0.5669     7.5149 H       
  40 H40            1.2474     0.2646     8.3440 H       
  41 H41           -0.1420     1.4104     6.2179 H       
  42 H42            1.5879     1.7620     6.5439 H       
  43 H43            2.6391    -2.8492     4.8364 H       
  44 H44            0.7338     1.4719     3.4211 H       
  45 H45            1.8651    -3.1108     1.9608 H       
  46 H46           -1.5386     2.9156     0.7260 H       
  47 H47           -2.0931     4.5391    -0.8844 H       
  48 H48           -1.6946     5.5491    -3.0944 H       
  49 H49           -0.3765     4.3352    -4.7833 H       
  50 H50            0.5436     2.1116    -4.2619 H       
  51 H51            0.1521     1.1051    -2.0489 H       
  52 H52           -3.5825     2.0675     1.3688 H       
  53 H53           -5.3774     0.3910     1.1933 H       
  54 H54           -5.1447    -1.5037    -0.3621 H       
  55 H55           -3.1173    -1.7215    -1.7425 H       
  56 H56           -1.3261    -0.0404    -1.5731 H       
@<TRIPOS>BOND
   1    1    2 am
   2    1    9 1
   3    1   22 1
   4    2    3 1
   5    2   10 2
   6    3    4 1
   7    3   18 1
   8    3   35 1
   9    4    5 ar
  10    4    9 ar
  11    5    6 ar
  12    5   36 1
  13    6    7 ar
  14    6   21 1
  15    7    8 ar
  16    7   37 1
  17    8    9 ar
  18    8   38 1
  19   11   12 1
  20   11   15 1
  21   12   13 1
  22   12   39 1
  23   12   40 1
  24   13   14 1
  25   13   41 1
  26   13   42 1
  27   14   15 ar
  28   14   19 ar
  29   15   16 ar
  30   16   17 ar
  31   16   43 1
  32   17   18 ar
  33   17   20 1
  34   18   19 ar
  35   19   44 1
  36   20   45 1
  37   22   23 1
  38   22   29 1
  39   22   46 1
  40   23   24 ar
  41   23   28 ar
  42   24   25 ar
  43   24   47 1
  44   25   26 ar
  45   25   48 1
  46   26   27 ar
  47   26   49 1
  48   27   28 ar
  49   27   50 1
  50   28   51 1
  51   29   30 ar
  52   29   34 ar
  53   30   31 ar
  54   30   52 1
  55   31   32 ar
  56   31   53 1
  57   32   33 ar
  58   32   54 1
  59   33   34 ar
  60   33   55 1
  61   34   56 1

#	End of record

