#	Name: ASD01841055
#	Creating user name:	WinNT
#	Creation time:	15. 06. 2019 19:38

#	Modifying user name:	WinNT
#	Modification time:	15. 06. 2019 19:38

#	Program:	/corina/corina34_cracker 3.40 0067  02.08.2006

@<TRIPOS>MOLECULE
ASD01841055
  36   38    0    0    0
SMALL
NO_CHARGES


@<TRIPOS>ATOM
   1 S1            -0.0204     1.6518     0.0111 S.o2    
   2 N2             0.0021    -0.0041     0.0020 N.am    
   3 S3             0.6146    -2.4449     1.2010 S.3     
   4 C4             0.5272    -0.6934     1.0773 C.2     
   5 N5             1.0231    -0.1444     2.1319 N.2     
   6 C6             1.4996    -0.9545     3.0998 C.ar    
   7 C7             1.3714    -2.3093     2.7864 C.ar    
   8 C8             1.8139    -3.2851     3.6779 C.ar    
   9 C9             2.3824    -2.9228     4.8787 C.ar    
  10 C10            2.5169    -1.5820     5.2060 C.ar    
  11 C11            2.0870    -0.6036     4.3378 C.ar    
  12 C12            1.6691    -4.7433     3.3263 C.3     
  13 O13            2.2263     0.7066     4.6729 O.3     
  14 C14            2.8275     0.9924     5.9374 C.3     
  15 C15            1.6553     2.1962    -0.0020 C.2     
  16 O16           -0.5821     2.0523    -1.2312 O.2     
  17 O17           -0.5583     2.0388     1.2681 O.2     
  18 C18            2.4270     2.4570    -1.1390 C.2     
  19 N19            3.6153     2.8399    -0.7475 N.2     
  20 N20            3.6373     2.8349     0.6532 N.pl3   
  21 C21            2.4213     2.4415     1.0863 C.2     
  22 C22            4.7773     3.1983     1.4985 C.3     
  23 H23           -0.3536    -0.4898    -0.7586 H       
  24 H24            2.7232    -3.6830     5.5659 H       
  25 H25            2.9631    -1.3029     6.1491 H       
  26 H26            2.5610    -5.0799     2.7978 H       
  27 H27            1.5456    -5.3266     4.2388 H       
  28 H28            0.7960    -4.8782     2.6879 H       
  29 H29            2.2289     0.5487     6.7329 H       
  30 H30            3.8340     0.5747     5.9639 H       
  31 H31            2.8783     2.0719     6.0799 H       
  32 H32            2.0989     2.3588    -2.1632 H       
  33 H33            2.1162     2.3348     2.1168 H       
  34 H34            4.7420     4.2656     1.7171 H       
  35 H35            4.7326     2.6349     2.4306 H       
  36 H36            5.7054     2.9647     0.9770 H       
@<TRIPOS>BOND
   1    1    2 am
   2    1   15 1
   3    1   16 2
   4    1   17 2
   5    2    4 1
   6    2   23 1
   7    3    4 1
   8    3    7 1
   9    4    5 2
  10    5    6 1
  11    6    7 ar
  12    6   11 ar
  13    7    8 ar
  14    8    9 ar
  15    8   12 1
  16    9   10 ar
  17    9   24 1
  18   10   11 ar
  19   10   25 1
  20   11   13 1
  21   12   26 1
  22   12   27 1
  23   12   28 1
  24   13   14 1
  25   14   29 1
  26   14   30 1
  27   14   31 1
  28   15   18 1
  29   15   21 2
  30   18   19 2
  31   18   32 1
  32   19   20 1
  33   20   21 1
  34   20   22 1
  35   21   33 1
  36   22   34 1
  37   22   35 1
  38   22   36 1

#	End of record

