#	Name: ASD00840476
#	Creating user name:	WinNT
#	Creation time:	15. 06. 2019 18:38

#	Modifying user name:	WinNT
#	Modification time:	15. 06. 2019 18:38

#	Program:	/corina/corina34_cracker 3.40 0067  02.08.2006

@<TRIPOS>MOLECULE
ASD00840476
  95  100    0    0    0
SMALL
NO_CHARGES


@<TRIPOS>ATOM
   1 F1            -0.1190    -3.1641     4.7115 F       
   2 N2            -0.0140     1.3153     0.0263 N.ar    
   3 C3             0.0029    -0.0070     0.0116 C.ar    
   4 C4             1.2072    -0.6993    -0.0062 C.ar    
   5 C5             2.3934     0.0133    -0.0085 C.ar    
   6 C6             2.3327     1.4002     0.0072 C.ar    
   7 C7             1.1004     2.0221     0.0245 C.ar    
   8 C8             1.2216    -2.2061    -0.0223 C.3     
   9 C9             0.4762    -2.7307    -1.2311 C.2     
  10 N10            2.5989    -2.7051    -0.0123 N.am    
  11 C11            3.4466    -2.3635    -1.0029 C.2     
  12 N12            4.7401    -2.7371    -0.9417 N.am    
  13 O13            3.0444    -1.7183    -1.9518 O.2     
  14 C14            5.2677    -3.4158     0.2497 C.3     
  15 C15            6.4985    -2.6518     0.7480 C.3     
  16 C16            7.5064    -2.5150    -0.3954 C.3     
  17 C17            6.8758    -1.7203    -1.5413 C.3     
  18 C18            5.6479    -2.4788    -2.0677 C.3     
  19 N19            8.7022    -1.8118     0.0878 N.3     
  20 C20            9.7416    -1.7658    -0.9501 C.3     
  21 C21           10.9362    -0.9586    -0.4366 C.3     
  22 N22           11.4506    -1.5780     0.7928 N.3     
  23 C23           10.4112    -1.6239     1.8307 C.3     
  24 C24            9.2166    -2.4312     1.3172 C.3     
  25 C25           12.6464    -0.8748     1.2760 C.3     
  26 O26            0.7574    -2.5299    -2.3937 O.2     
  27 N27           -0.5550    -3.4608    -0.7741 N.am    
  28 C28            0.4478    -2.7556     1.1541 C.ar    
  29 C29           -0.6003    -3.4957     0.6212 C.ar    
  30 C30            0.6116    -2.6426     2.5165 C.ar    
  31 C31           -0.2762    -3.2720     3.3740 C.ar    
  32 C32           -1.3265    -4.0136     2.8543 C.ar    
  33 C33           -1.4904    -4.1268     1.4871 C.ar    
  34 F34           -2.1933    -4.6282     3.6887 F       
  35 C35           -1.0197    -5.8472    -2.0638 C.ar    
  36 C36            0.1583    -6.0092    -2.7781 C.ar    
  37 C37           -1.6978    -6.9545    -1.5916 C.ar    
  38 C38           -1.2029    -8.2231    -1.8300 C.ar    
  39 C39           -0.0287    -8.3874    -2.5418 C.ar    
  40 C40            0.6527    -7.2836    -3.0164 C.ar    
  41 H41            0.3559    -9.3795    -2.7267 H       
  42 O42            0.8269    -4.9217    -3.2440 O.3     
  43 C43            2.0329    -5.1639    -3.9713 C.3     
  44 C44            2.6395    -3.8302    -4.4118 C.3     
  45 C45           13.0057    -1.3812     2.6744 C.3     
  46 C46           14.2511    -0.6488     3.1777 C.3     
  47 S47           -1.6469    -4.2303    -1.7528 S.o2    
  48 O48           -2.8280    -4.3996    -0.9810 O.2     
  49 O49           -1.6234    -3.5445    -2.9971 O.2     
  50 O50           -1.1671    -0.6940     0.0146 O.3     
  51 C51           -3.5776    -0.8655     0.0342 C.3     
  52 C52           -2.3711     0.0754     0.0337 C.3     
  53 H53            3.3447    -0.4978    -0.0219 H       
  54 H54            3.2399     1.9862     0.0062 H       
  55 H55            1.0477     3.1007     0.0364 H       
  56 H56            2.9009    -3.2813     0.7072 H       
  57 H57            4.5061    -3.4301     1.0294 H       
  58 H58            5.5504    -4.4369    -0.0065 H       
  59 H59            6.1982    -1.6610     1.0889 H       
  60 H60            6.9561    -3.1977     1.5730 H       
  61 H61            7.7875    -3.5058    -0.7523 H       
  62 H62            6.5720    -0.7382    -1.1788 H       
  63 H63            7.6020    -1.6031    -2.3456 H       
  64 H64            5.9643    -3.4221    -2.5128 H       
  65 H65            5.1371    -1.8726    -2.8158 H       
  66 H66           10.0631    -2.7798    -1.1879 H       
  67 H67            9.3403    -1.2917    -1.8458 H       
  68 H68           11.7202    -0.9476    -1.1938 H       
  69 H69           10.6206     0.0630    -0.2245 H       
  70 H70           10.8125    -2.0980     2.7264 H       
  71 H71           10.0897    -0.6099     2.0685 H       
  72 H72            8.4327    -2.4422     2.0744 H       
  73 H73            9.5322    -3.4527     1.1051 H       
  74 H74           13.4779    -1.0628     0.5968 H       
  75 H75           12.4463     0.1959     1.3177 H       
  76 H76            1.4313    -2.0642     2.9163 H       
  77 H77           -2.3107    -4.7055     1.0889 H       
  78 H78           -2.6150    -6.8289    -1.0355 H       
  79 H79           -1.7340    -9.0874    -1.4595 H       
  80 H80            1.5693    -7.4124    -3.5729 H       
  81 H81            2.7417    -5.6925    -3.3338 H       
  82 H82            1.8119    -5.7704    -4.8496 H       
  83 H83            1.9307    -3.3016    -5.0493 H       
  84 H84            2.8605    -3.2238    -3.5334 H       
  85 H85            3.5594    -4.0150    -4.9665 H       
  86 H86           12.1742    -1.1931     3.3536 H       
  87 H87           13.2058    -2.4519     2.6327 H       
  88 H88           15.0826    -0.8369     2.4984 H       
  89 H89           14.0510     0.4219     3.2193 H       
  90 H90           14.5071    -1.0096     4.1739 H       
  91 H91           -4.4960    -0.2786     0.0488 H       
  92 H92           -3.5561    -1.4843    -0.8629 H       
  93 H93           -3.5402    -1.5038     0.9169 H       
  94 H94           -2.3926     0.6942     0.9307 H       
  95 H95           -2.4085     0.7137    -0.8491 H       
@<TRIPOS>BOND
   1    1   31 1
   2    2    3 ar
   3    2    7 ar
   4    3    4 ar
   5    3   50 1
   6    4    5 ar
   7    4    8 1
   8    5    6 ar
   9    5   53 1
  10    6    7 ar
  11    6   54 1
  12    7   55 1
  13    8    9 1
  14    8   10 1
  15    8   28 1
  16    9   26 2
  17    9   27 am
  18   10   11 am
  19   10   56 1
  20   11   12 am
  21   11   13 2
  22   12   14 1
  23   12   18 1
  24   14   15 1
  25   14   57 1
  26   14   58 1
  27   15   16 1
  28   15   59 1
  29   15   60 1
  30   16   17 1
  31   16   19 1
  32   16   61 1
  33   17   18 1
  34   17   62 1
  35   17   63 1
  36   18   64 1
  37   18   65 1
  38   19   20 1
  39   19   24 1
  40   20   21 1
  41   20   66 1
  42   20   67 1
  43   21   22 1
  44   21   68 1
  45   21   69 1
  46   22   23 1
  47   22   25 1
  48   23   24 1
  49   23   70 1
  50   23   71 1
  51   24   72 1
  52   24   73 1
  53   25   45 1
  54   25   74 1
  55   25   75 1
  56   27   47 am
  57   27   29 1
  58   28   29 ar
  59   28   30 ar
  60   29   33 ar
  61   30   31 ar
  62   30   76 1
  63   31   32 ar
  64   32   33 ar
  65   32   34 1
  66   33   77 1
  67   35   36 ar
  68   35   37 ar
  69   35   47 1
  70   36   42 1
  71   36   40 ar
  72   37   38 ar
  73   37   78 1
  74   38   39 ar
  75   38   79 1
  76   39   40 ar
  77   39   41 1
  78   40   80 1
  79   42   43 1
  80   43   44 1
  81   43   81 1
  82   43   82 1
  83   44   83 1
  84   44   84 1
  85   44   85 1
  86   45   46 1
  87   45   86 1
  88   45   87 1
  89   46   88 1
  90   46   89 1
  91   46   90 1
  92   47   48 2
  93   47   49 2
  94   50   52 1
  95   51   52 1
  96   51   91 1
  97   51   92 1
  98   51   93 1
  99   52   94 1
 100   52   95 1

#	End of record

