#	Name: ASD01000052
#	Creating user name:	WinNT
#	Creation time:	15. 06. 2019 18:54

#	Modifying user name:	WinNT
#	Modification time:	15. 06. 2019 18:54

#	Program:	/corina/corina34_cracker 3.40 0067  02.08.2006

@<TRIPOS>MOLECULE
ASD01000052
  48   50    0    0    0
SMALL
NO_CHARGES


@<TRIPOS>ATOM
   1 C1             0.3037     1.0537    -1.7503 C.ar    
   2 C2             0.2255    -0.2176    -1.2132 C.ar    
   3 C3             1.3277    -0.7746    -0.5920 C.ar    
   4 C4             2.5083    -0.0604    -0.5084 C.ar    
   5 C5             2.5869     1.2106    -1.0463 C.ar    
   6 C6             1.4842     1.7681    -1.6662 C.ar    
   7 C7             1.2421    -2.1602    -0.0056 C.3     
   8 C8             2.6017    -2.8087    -0.0486 C.ar    
   9 C9             0.7722    -2.0726     1.4236 C.ar    
  10 C10            1.5593    -1.4480     2.3729 C.ar    
  11 C11            1.1284    -1.3678     3.6839 C.ar    
  12 C12           -0.0900    -1.9117     4.0454 C.ar    
  13 C13           -0.8775    -2.5354     3.0959 C.ar    
  14 C14           -0.4485    -2.6119     1.7841 C.ar    
  15 C15            3.1127    -3.4183     1.0820 C.ar    
  16 C16            4.3599    -4.0132     1.0426 C.ar    
  17 C17            5.0959    -3.9988    -0.1275 C.ar    
  18 C18            4.5845    -3.3900    -1.2583 C.ar    
  19 C19            3.3354    -2.7989    -1.2201 C.ar    
  20 S20            0.0680    -3.1527    -0.9684 S.3     
  21 C21            0.2441    -4.8074    -0.2462 C.3     
  22 C22           -0.6050    -5.8030    -1.0391 C.3     
  23 C23           -0.4564    -7.1986    -0.4299 C.3     
  24 O24           -1.1552    -8.1478    -1.2378 O.3     
  25 N25           -2.0149    -5.3939    -0.9877 N.3     
  26 H26           -0.5560     1.4871    -2.2395 H       
  27 H27           -0.6969    -0.7756    -1.2785 H       
  28 H28            3.3692    -0.4953    -0.0225 H       
  29 H29            3.5090     1.7688    -0.9804 H       
  30 H30            1.5456     2.7611    -2.0865 H       
  31 H31            2.5112    -1.0231     2.0904 H       
  32 H32            1.7436    -0.8804     4.4257 H       
  33 H33           -0.4264    -1.8496     5.0698 H       
  34 H34           -1.8292    -2.9607     3.3785 H       
  35 H35           -1.0638    -3.0992     1.0422 H       
  36 H36            2.5377    -3.4295     1.9961 H       
  37 H37            4.7595    -4.4888     1.9261 H       
  38 H38            6.0706    -4.4630    -0.1580 H       
  39 H39            5.1596    -3.3785    -2.1723 H       
  40 H40            2.9359    -2.3233    -2.1036 H       
  41 H41            1.2903    -5.1110    -0.2843 H       
  42 H42           -0.0913    -4.7888     0.7908 H       
  43 H43           -0.2696    -5.8216    -2.0760 H       
  44 H44            0.5995    -7.4657    -0.3867 H       
  45 H45           -0.8735    -7.2018     0.5771 H       
  46 H46           -1.1038    -9.0563    -0.9106 H       
  47 H47           -2.3498    -5.3689    -0.0362 H       
  48 H48           -2.1497    -4.5030    -1.4420 H       
@<TRIPOS>BOND
   1    1    2 ar
   2    1    6 ar
   3    1   26 1
   4    2    3 ar
   5    2   27 1
   6    3    4 ar
   7    3    7 1
   8    4    5 ar
   9    4   28 1
  10    5    6 ar
  11    5   29 1
  12    6   30 1
  13    7    8 1
  14    7    9 1
  15    7   20 1
  16    8   15 ar
  17    8   19 ar
  18    9   10 ar
  19    9   14 ar
  20   10   11 ar
  21   10   31 1
  22   11   12 ar
  23   11   32 1
  24   12   13 ar
  25   12   33 1
  26   13   14 ar
  27   13   34 1
  28   14   35 1
  29   15   16 ar
  30   15   36 1
  31   16   17 ar
  32   16   37 1
  33   17   18 ar
  34   17   38 1
  35   18   19 ar
  36   18   39 1
  37   19   40 1
  38   20   21 1
  39   21   22 1
  40   21   41 1
  41   21   42 1
  42   22   23 1
  43   22   25 1
  44   22   43 1
  45   23   24 1
  46   23   44 1
  47   23   45 1
  48   24   46 1
  49   25   47 1
  50   25   48 1

#	End of record

