#	Name: ASD00170692
#	Creating user name:	WinNT
#	Creation time:	15. 06. 2019 18:32

#	Modifying user name:	WinNT
#	Modification time:	15. 06. 2019 18:32

#	Program:	/corina/corina34_cracker 3.40 0067  02.08.2006

@<TRIPOS>MOLECULE
ASD00170692
  38   39    0    0    0
SMALL
NO_CHARGES


@<TRIPOS>ATOM
   1 Cl1            3.0755     5.4254    -5.0186 Cl      
   2 C2             2.1602     5.5858    -3.5522 C.ar    
   3 C3             2.6436     5.0407    -2.3742 C.ar    
   4 C4             1.9212     5.1654    -1.2062 C.ar    
   5 C5             0.7004     5.8427    -1.2127 C.ar    
   6 C6             0.2184     6.3899    -2.4031 C.ar    
   7 C7             0.9522     6.2634    -3.5638 C.ar    
   8 C8            -0.0792     5.9794     0.0364 C.2     
   9 O9             0.2935     5.4188     1.0513 O.2     
  10 C10           -1.2979     6.7877     0.0530 C.2     
  11 C11           -2.5620     6.2641    -0.0870 C.2     
  12 N12           -2.8422     4.9235    -0.2591 N.pl3   
  13 S13           -3.7350     7.4987    -0.0178 S.3     
  14 C14           -2.5225     8.7474     0.2029 C.2     
  15 C15           -1.3050     8.2257     0.2247 C.2     
  16 C16           -0.0535     9.0467     0.4004 C.3     
  17 C17            0.2749     9.1636     1.8901 C.3     
  18 C18            0.4948     7.7671     2.4750 C.3     
  19 C19            1.5455     9.9971     2.0684 C.3     
  20 C20           -0.8873     9.8436     2.6167 C.3     
  21 Br21          -2.9031    10.5899     0.3923 Br      
  22 H22            3.5880     4.5167    -2.3705 H       
  23 H23            2.2989     4.7397    -0.2883 H       
  24 H24           -0.7256     6.9146    -2.4142 H       
  25 H25            0.5803     6.6864    -4.4853 H       
  26 H26           -2.1183     4.2860    -0.3615 H       
  27 H27           -3.7629     4.6188    -0.2775 H       
  28 H28            0.7744     8.5622    -0.1172 H       
  29 H29           -0.2102    10.0416    -0.0163 H       
  30 H30            1.3227     7.2826     1.9574 H       
  31 H31            0.7287     7.8504     3.5364 H       
  32 H32           -0.4104     7.1733     2.3480 H       
  33 H33            1.3888    10.9921     1.6517 H       
  34 H34            1.7794    10.0804     3.1298 H       
  35 H35            2.3734     9.5127     1.5508 H       
  36 H36           -1.7925     9.2499     2.4897 H       
  37 H37           -0.6534     9.9270     3.6780 H       
  38 H38           -1.0440    10.8386     2.2000 H       
@<TRIPOS>BOND
   1    1    2 1
   2    2    3 ar
   3    2    7 ar
   4    3    4 ar
   5    3   22 1
   6    4    5 ar
   7    4   23 1
   8    5    6 ar
   9    5    8 1
  10    6    7 ar
  11    6   24 1
  12    7   25 1
  13    8    9 2
  14    8   10 1
  15   10   11 2
  16   10   15 1
  17   11   12 1
  18   11   13 1
  19   12   26 1
  20   12   27 1
  21   13   14 1
  22   14   15 2
  23   14   21 1
  24   15   16 1
  25   16   17 1
  26   16   28 1
  27   16   29 1
  28   17   18 1
  29   17   19 1
  30   17   20 1
  31   18   30 1
  32   18   31 1
  33   18   32 1
  34   19   33 1
  35   19   34 1
  36   19   35 1
  37   20   36 1
  38   20   37 1
  39   20   38 1

#	End of record

