#	Name: ASD01810707
#	Creating user name:	WinNT
#	Creation time:	15. 06. 2019 19:25

#	Modifying user name:	WinNT
#	Modification time:	15. 06. 2019 19:25

#	Program:	/corina/corina34_cracker 3.40 0067  02.08.2006

@<TRIPOS>MOLECULE
ASD01810707
  46   49    0    0    0
SMALL
NO_CHARGES


@<TRIPOS>ATOM
   1 C1             0.2396     0.7900    -0.0021 C.2     
   2 O2             0.3482    -0.3899    -0.2732 O.2     
   3 C3             3.5775     2.1513    -0.3173 C.3     
   4 C4             2.7387     1.0570     0.3773 C.3     
   5 N5             1.3387     1.5260     0.2565 N.am    
   6 C6             1.4208     2.9875     0.4846 C.3     
   7 C7             2.7086     3.4241    -0.2466 C.3     
   8 C8             4.0321     3.3502     0.5174 C.3     
   9 C9             3.9619     3.2190     2.0171 C.ar    
  10 C10            4.4884     2.1011     2.6374 C.ar    
  11 C11            4.4253     1.9784     4.0120 C.ar    
  12 C12            3.8331     2.9781     4.7700 C.ar    
  13 C13            3.3056     4.0988     4.1451 C.ar    
  14 C14            3.3762     4.2193     2.7708 C.ar    
  15 O15            3.7694     2.8595     6.1223 O.3     
  16 C16            3.1456     3.9272     6.8385 C.3     
  17 C17           -1.0978     1.4194     0.0380 C.ar    
  18 C18           -2.1667     0.8352    -0.6418 C.ar    
  19 C19           -3.4177     1.4312    -0.5996 C.ar    
  20 C20           -3.6034     2.6070     0.1186 C.ar    
  21 C21           -2.5442     3.1855     0.7920 C.ar    
  22 C22           -1.2962     2.5968     0.7608 C.ar    
  23 C23           -4.9642     3.2532     0.1625 C.3     
  24 N24           -4.4915     0.8506    -1.2791 N.pl3   
  25 H25            4.1460     1.8664    -1.2027 H       
  26 H26            2.8646     0.1013    -0.1315 H       
  27 H27            3.0213     0.9701     1.4265 H       
  28 H28            0.5524     3.4883     0.0567 H       
  29 H29            1.4976     3.2021     1.5505 H       
  30 H30            2.6029     4.0959    -1.0985 H       
  31 H31            4.8656     3.9404     0.1366 H       
  32 H32            4.9490     1.3229     2.0469 H       
  33 H33            4.8363     1.1048     4.4961 H       
  34 H34            2.8440     4.8783     4.7330 H       
  35 H35            2.9700     5.0938     2.2842 H       
  36 H36            3.6860     4.8551     6.6509 H       
  37 H37            2.1134     4.0342     6.5049 H       
  38 H38            3.1615     3.7069     7.9059 H       
  39 H39           -2.0201    -0.0780    -1.1994 H       
  40 H40           -2.6945     4.0991     1.3479 H       
  41 H41           -0.4721     3.0496     1.2921 H       
  42 H42           -5.5255     2.8607     1.0104 H       
  43 H43           -4.8508     4.3320     0.2699 H       
  44 H44           -5.5003     3.0343    -0.7609 H       
  45 H45           -4.3618     0.0304    -1.7804 H       
  46 H46           -5.3668     1.2676    -1.2495 H       
@<TRIPOS>BOND
   1    1    2 2
   2    1    5 am
   3    1   17 1
   4    3    4 1
   5    3    8 1
   6    3    7 1
   7    3   25 1
   8    4    5 1
   9    4   26 1
  10    4   27 1
  11    5    6 1
  12    6    7 1
  13    6   28 1
  14    6   29 1
  15    7    8 1
  16    7   30 1
  17    8    9 1
  18    8   31 1
  19    9   10 ar
  20    9   14 ar
  21   10   11 ar
  22   10   32 1
  23   11   12 ar
  24   11   33 1
  25   12   13 ar
  26   12   15 1
  27   13   14 ar
  28   13   34 1
  29   14   35 1
  30   15   16 1
  31   16   36 1
  32   16   37 1
  33   16   38 1
  34   17   18 ar
  35   17   22 ar
  36   18   19 ar
  37   18   39 1
  38   19   20 ar
  39   19   24 1
  40   20   21 ar
  41   20   23 1
  42   21   22 ar
  43   21   40 1
  44   22   41 1
  45   23   42 1
  46   23   43 1
  47   23   44 1
  48   24   45 1
  49   24   46 1

#	End of record

