#	Name: ASD03240138
#	Creating user name:	WinNT
#	Creation time:	15. 06. 2019 20:34

#	Modifying user name:	WinNT
#	Modification time:	15. 06. 2019 20:34

#	Program:	/corina/corina34_cracker 3.40 0067  02.08.2006

@<TRIPOS>MOLECULE
ASD03240138
  86   93    0    0    0
SMALL
NO_CHARGES


@<TRIPOS>ATOM
   1 C1            -0.0172     1.4162     0.0098 C.ar    
   2 C2             0.0021    -0.0041     0.0020 C.ar    
   3 C3             1.1970     2.1248     0.0020 C.ar    
   4 C4             2.3739     1.3954    -0.0132 C.ar    
   5 C5             2.3157    -0.0187    -0.0203 C.ar    
   6 N6             1.1649    -0.6592    -0.0127 N.ar    
   7 C7             3.5772    -0.7956    -0.0371 C.ar    
   8 C8             3.6835     2.0897    -0.0224 C.ar    
   9 C9             3.9297     3.1070    -0.9434 C.ar    
  10 C10            5.1507     3.7501    -0.9470 C.ar    
  11 C11            6.1293     3.3872    -0.0391 C.ar    
  12 C12            5.8907     2.3786     0.8771 C.ar    
  13 C13            4.6717     1.7319     0.8936 C.ar    
  14 C14            3.6620    -2.0076     0.6473 C.ar    
  15 C15            4.8394    -2.7269     0.6276 C.ar    
  16 C16            5.9343    -2.2479    -0.0692 C.ar    
  17 C17            5.8562    -1.0462    -0.7501 C.ar    
  18 C18            4.6826    -0.3205    -0.7421 C.ar    
  19 C19            7.2174    -3.0381    -0.0863 C.3     
  20 C20           -1.2250    -0.6899     0.0106 C.ar    
  21 N21           -2.3553    -0.0243     0.0254 N.ar    
  22 C22           -2.4082     1.3050     0.0331 C.ar    
  23 C23           -1.2586     2.0704     0.0310 C.ar    
  24 N24            7.2061    -3.9655    -1.2255 N.3     
  25 C25            8.5259    -4.5806    -1.4165 C.3     
  26 C26            8.5169    -5.4247    -2.6930 C.3     
  27 C27            7.4407    -6.5075    -2.5754 C.3     
  28 C28            6.0836    -5.8425    -2.3288 C.3     
  29 C29            6.1631    -4.9863    -1.0629 C.3     
  30 C30            7.3862    -7.3042    -3.8534 C.2     
  31 N31            6.6879    -6.9823    -4.9678 N.pl3   
  32 C32            6.9328    -7.9851    -5.8668 C.2     
  33 N33            7.7398    -8.8394    -5.2777 N.2     
  34 N34            8.0089    -8.4286    -4.0895 N.2     
  35 C35            6.3915    -8.0883    -7.2396 C.ar    
  36 C36            6.7360    -9.1778    -8.0389 C.ar    
  37 C37            6.2211    -9.2604    -9.3211 C.ar    
  38 C38            5.3781    -8.2507    -9.7629 C.ar    
  39 C39            5.0779    -7.1981    -8.9168 C.ar    
  40 N40            5.5769    -7.1454    -7.6993 N.ar    
  41 N41           -3.6481     1.9375     0.0488 N.3     
  42 C42           -4.7407     0.9547     0.0544 C.3     
  43 C43           -6.0812     1.6867     0.1520 C.3     
  44 N44           -6.2149     2.6119    -0.9819 N.3     
  45 C45           -5.1223     3.5947    -0.9876 C.3     
  46 C46           -3.7817     2.8627    -1.0851 C.3     
  47 C47           -7.5233     3.2795    -0.9653 C.3     
  48 H48            1.2114     3.2047     0.0074 H       
  49 H49            3.1666     3.3909    -1.6529 H       
  50 H50            5.3427     4.5380    -1.6602 H       
  51 H51            7.0835     3.8931    -0.0458 H       
  52 H52            6.6586     2.0992     1.5833 H       
  53 H53            4.4865     0.9446     1.6093 H       
  54 H54            2.8080    -2.3824     1.1920 H       
  55 H55            4.9065    -3.6656     1.1576 H       
  56 H56            6.7143    -0.6771    -1.2921 H       
  57 H57            4.6226     0.6174    -1.2743 H       
  58 H58            8.0627    -2.3565    -0.1811 H       
  59 H59            7.3085    -3.6032     0.8413 H       
  60 H60           -1.2373    -1.7698     0.0046 H       
  61 H61           -1.3139     3.1490     0.0373 H       
  62 H62            9.2814    -3.7997    -1.5028 H       
  63 H63            8.7572    -5.2166    -0.5621 H       
  64 H64            8.2993    -4.7867    -3.5496 H       
  65 H65            9.4918    -5.8936    -2.8260 H       
  66 H66            7.6789    -7.1690    -1.7425 H       
  67 H67            5.8277    -5.2112    -3.1797 H       
  68 H68            5.3201    -6.6100    -2.2017 H       
  69 H69            6.4055    -5.6205    -0.2101 H       
  70 H70            5.2026    -4.5001    -0.8923 H       
  71 H71            6.1285    -6.2013    -5.1017 H       
  72 H72            7.3955    -9.9460    -7.6631 H       
  73 H73            6.4702   -10.0920    -9.9635 H       
  74 H74            4.9603    -8.2860   -10.7582 H       
  75 H75            4.4220    -6.4108    -9.2581 H       
  76 H76           -4.7106     0.3722    -0.8664 H       
  77 H77           -4.6267     0.2891     0.9100 H       
  78 H78           -6.8944     0.9612     0.1271 H       
  79 H79           -6.1222     2.2475     1.0857 H       
  80 H80           -5.2363     4.2603    -1.8432 H       
  81 H81           -5.1524     4.1772    -0.0668 H       
  82 H82           -2.9686     3.5882    -1.0603 H       
  83 H83           -3.7408     2.3019    -2.0189 H       
  84 H84           -7.6316     3.8438    -0.0391 H       
  85 H85           -7.5957     3.9584    -1.8150 H       
  86 H86           -8.3136     2.5315    -1.0296 H       
@<TRIPOS>BOND
   1    1    2 ar
   2    1    3 ar
   3    1   23 ar
   4    2   20 ar
   5    2    6 ar
   6    3    4 ar
   7    3   48 1
   8    4    5 ar
   9    4    8 1
  10    5    6 ar
  11    5    7 1
  12    7   14 ar
  13    7   18 ar
  14    8    9 ar
  15    8   13 ar
  16    9   10 ar
  17    9   49 1
  18   10   11 ar
  19   10   50 1
  20   11   12 ar
  21   11   51 1
  22   12   13 ar
  23   12   52 1
  24   13   53 1
  25   14   15 ar
  26   14   54 1
  27   15   16 ar
  28   15   55 1
  29   16   17 ar
  30   16   19 1
  31   17   18 ar
  32   17   56 1
  33   18   57 1
  34   19   24 1
  35   19   58 1
  36   19   59 1
  37   20   21 ar
  38   20   60 1
  39   21   22 ar
  40   22   23 ar
  41   22   41 1
  42   23   61 1
  43   24   25 1
  44   24   29 1
  45   25   26 1
  46   25   62 1
  47   25   63 1
  48   26   27 1
  49   26   64 1
  50   26   65 1
  51   27   28 1
  52   27   30 1
  53   27   66 1
  54   28   29 1
  55   28   67 1
  56   28   68 1
  57   29   69 1
  58   29   70 1
  59   30   31 1
  60   30   34 2
  61   31   32 1
  62   31   71 1
  63   32   33 2
  64   32   35 1
  65   33   34 1
  66   35   36 ar
  67   35   40 ar
  68   36   37 ar
  69   36   72 1
  70   37   38 ar
  71   37   73 1
  72   38   39 ar
  73   38   74 1
  74   39   40 ar
  75   39   75 1
  76   41   42 1
  77   41   46 1
  78   42   43 1
  79   42   76 1
  80   42   77 1
  81   43   44 1
  82   43   78 1
  83   43   79 1
  84   44   45 1
  85   44   47 1
  86   45   46 1
  87   45   80 1
  88   45   81 1
  89   46   82 1
  90   46   83 1
  91   47   84 1
  92   47   85 1
  93   47   86 1

#	End of record

