#	Name: ASD01890050
#	Creating user name:	WinNT
#	Creation time:	15. 06. 2019 19:50

#	Modifying user name:	WinNT
#	Modification time:	15. 06. 2019 19:50

#	Program:	/corina/corina34_cracker 3.40 0067  02.08.2006

@<TRIPOS>MOLECULE
ASD01890050
  30   30    0    0    0
SMALL
NO_CHARGES


@<TRIPOS>ATOM
   1 C1            -0.0184     1.5028     0.0103 C.2     
   2 C2             0.0021    -0.0041     0.0020 C.3     
   3 C3             1.4513    -0.4944    -0.0145 C.3     
   4 C4             2.1073    -0.0797    -1.3063 C.2     
   5 O5             1.0197     2.1211     0.0037 O.2     
   6 O6            -1.1898     2.1580     0.0194 O.3     
   7 O7             1.4800     0.5441    -2.1293 O.2     
   8 O8             3.3884    -0.4032    -1.5425 O.3     
   9 C9            -0.6897    -0.5226     1.2364 C.ar    
  10 C10           -1.8039    -1.3319     1.1155 C.ar    
  11 C11           -2.4388    -1.8078     2.2472 C.ar    
  12 C12           -1.9589    -1.4741     3.5012 C.ar    
  13 C13           -0.8438    -0.6641     3.6215 C.ar    
  14 C14           -0.2064    -0.1935     2.4890 C.ar    
  15 Cl15          -2.7561    -2.0710     4.9231 Cl      
  16 C16            3.9549     0.0291    -2.8077 C.3     
  17 C17            5.4123    -0.4281    -2.8966 C.3     
  18 H18           -0.5153    -0.3696    -0.8850 H       
  19 H19            1.9924    -0.0570     0.8246 H       
  20 H20            1.4682    -1.5810     0.0691 H       
  21 H21           -1.1523     3.1243     0.0245 H       
  22 H22           -2.1786    -1.5921     0.1366 H       
  23 H23           -3.3095    -2.4398     2.1527 H       
  24 H24           -0.4687    -0.4033     4.6002 H       
  25 H25            0.6667     0.4352     2.5828 H       
  26 H26            3.3863    -0.4078    -3.6286 H       
  27 H27            3.9105     1.1162    -2.8731 H       
  28 H28            5.9809     0.0088    -2.0757 H       
  29 H29            5.4566    -1.5152    -2.8312 H       
  30 H30            5.8375    -0.1036    -3.8463 H       
@<TRIPOS>BOND
   1    1    2 1
   2    1    5 2
   3    1    6 1
   4    2    3 1
   5    2    9 1
   6    2   18 1
   7    3    4 1
   8    3   19 1
   9    3   20 1
  10    4    7 2
  11    4    8 1
  12    6   21 1
  13    8   16 1
  14    9   10 ar
  15    9   14 ar
  16   10   11 ar
  17   10   22 1
  18   11   12 ar
  19   11   23 1
  20   12   13 ar
  21   12   15 1
  22   13   14 ar
  23   13   24 1
  24   14   25 1
  25   16   17 1
  26   16   26 1
  27   16   27 1
  28   17   28 1
  29   17   29 1
  30   17   30 1

#	End of record

