#	Name: ASD01028137
#	Creating user name:	WinNT
#	Creation time:	15. 06. 2019 18:56

#	Modifying user name:	WinNT
#	Modification time:	15. 06. 2019 18:56

#	Program:	/corina/corina34_cracker 3.40 0067  02.08.2006

@<TRIPOS>MOLECULE
ASD01028137
  62   67    0    0    0
SMALL
NO_CHARGES


@<TRIPOS>ATOM
   1 C1            -0.0187     1.5248     0.0104 C.3     
   2 C2             0.0021    -0.0041     0.0020 C.3     
   3 C3            -1.3967    -0.5368     0.3177 C.3     
   4 C4             2.0805     1.7983     1.3385 C.3     
   5 C5             1.4053     2.0822    -0.0002 C.3     
   6 N6             2.4984     3.0760     1.9743 N.3     
   7 N7             0.2528     1.8255     4.4004 N.pl3   
   8 C8             0.9758     2.8861     4.9808 C.ar    
   9 C9             1.5023     3.8350     4.1021 C.ar    
  10 C10            1.3103     3.6779     2.6205 C.3     
  11 C11            1.2091     2.9972     6.3417 C.ar    
  12 C12            1.8945     4.1027     6.8341 C.ar    
  13 C13            2.3657     5.0729     5.9599 C.ar    
  14 C14            2.1752     4.9336     4.6006 C.ar    
  15 O15           -1.3227    -1.6365     1.2256 O.3     
  16 C16           -1.6059    -1.3874     2.5307 C.ar    
  17 C17           -0.9772    -0.3366     3.1428 C.ar    
  18 C18           -1.2508    -0.0459     4.4820 C.ar    
  19 C19           -0.6272     1.0488     5.1467 C.ar    
  20 N20           -0.9383     1.2632     6.4060 N.ar    
  21 O21            0.9073     2.1767     7.3861 O.3     
  22 C22            1.2749     2.8495     8.5935 C.3     
  23 O23            1.9844     4.0235     8.1901 O.3     
  24 C24           -2.5158    -2.1828     3.2386 C.ar    
  25 C25           -2.7966    -1.9184     4.5634 C.ar    
  26 C26           -2.1690    -0.8433     5.2054 C.ar    
  27 N27           -2.4053    -0.5339     6.4900 N.ar    
  28 C28           -1.8009     0.4877     7.0498 C.ar    
  29 O29           -3.1285    -3.2226     2.6149 O.3     
  30 C30           -4.0457    -3.9955     3.3916 C.3     
  31 C31           -4.6315    -5.1130     2.5262 C.3     
  32 C32            3.4924     2.7222     3.0233 C.3     
  33 C33           -5.7280    -5.9877     3.1373 C.3     
  34 O34           -4.3959    -6.4627     2.9322 O.3     
  35 H35           -0.5497     1.8851    -0.8715 H       
  36 H36           -0.5325     1.8745     0.9062 H       
  37 H37            0.3110    -0.3587    -0.9823 H       
  38 H38            0.7043    -0.3672     0.7520 H       
  39 H39           -1.9982     0.2570     0.7592 H       
  40 H40           -1.8694    -0.8708    -0.6077 H       
  41 H41            1.3974     1.2827     2.0034 H       
  42 H42            2.9718     1.1937     1.1793 H       
  43 H43            1.9728     1.6124    -0.8045 H       
  44 H44            1.3703     3.1592    -0.1691 H       
  45 H45            0.3738     1.6291     3.4529 H       
  46 H46            1.1519     4.6653     2.1750 H       
  47 H47            0.4414     3.0604     2.4120 H       
  48 H48            2.8833     5.9387     6.3461 H       
  49 H49            2.5511     5.6855     3.9217 H       
  50 H50           -0.2718     0.2591     2.5835 H       
  51 H51            0.3839     3.1266     9.1571 H       
  52 H52            1.9176     2.2096     9.1980 H       
  53 H53           -3.4970    -2.5390     5.1031 H       
  54 H54           -2.0180     0.7066     8.0849 H       
  55 H55           -3.5233    -4.4315     4.2432 H       
  56 H56           -4.8504    -3.3531     3.7491 H       
  57 H57           -4.6842    -4.9052     1.4574 H       
  58 H58            4.3434     2.2202     2.5629 H       
  59 H59            3.8324     3.6296     3.5225 H       
  60 H60            3.0297     2.0576     3.7529 H       
  61 H61           -6.0387    -5.7723     4.1596 H       
  62 H62           -6.5082    -6.3614     2.4742 H       
@<TRIPOS>BOND
   1    1    2 1
   2    1    5 1
   3    1   35 1
   4    1   36 1
   5    2    3 1
   6    2   37 1
   7    2   38 1
   8    3   15 1
   9    3   39 1
  10    3   40 1
  11    4    5 1
  12    4    6 1
  13    4   41 1
  14    4   42 1
  15    5   43 1
  16    5   44 1
  17    6   32 1
  18    6   10 1
  19    7    8 1
  20    7   19 1
  21    7   45 1
  22    8    9 ar
  23    8   11 ar
  24    9   10 1
  25    9   14 ar
  26   10   46 1
  27   10   47 1
  28   11   12 ar
  29   11   21 1
  30   12   13 ar
  31   12   23 1
  32   13   14 ar
  33   13   48 1
  34   14   49 1
  35   15   16 1
  36   16   17 ar
  37   16   24 ar
  38   17   18 ar
  39   17   50 1
  40   18   19 ar
  41   18   26 ar
  42   19   20 ar
  43   20   28 ar
  44   21   22 1
  45   22   23 1
  46   22   51 1
  47   22   52 1
  48   24   25 ar
  49   24   29 1
  50   25   26 ar
  51   25   53 1
  52   26   27 ar
  53   27   28 ar
  54   28   54 1
  55   29   30 1
  56   30   31 1
  57   30   55 1
  58   30   56 1
  59   31   33 1
  60   31   34 1
  61   31   57 1
  62   32   58 1
  63   32   59 1
  64   32   60 1
  65   33   34 1
  66   33   61 1
  67   33   62 1

#	End of record

