#	Name: ASD00170481
#	Creating user name:	WinNT
#	Creation time:	15. 06. 2019 18:32

#	Modifying user name:	WinNT
#	Modification time:	15. 06. 2019 18:32

#	Program:	/corina/corina34_cracker 3.40 0067  02.08.2006

@<TRIPOS>MOLECULE
ASD00170481
  35   38    0    0    0
SMALL
NO_CHARGES


@<TRIPOS>ATOM
   1 C1            -0.0279     1.3913    -0.0172 C.ar    
   2 C2            -0.0015    -0.0104    -0.0084 C.ar    
   3 C3            -1.1918    -0.7247     0.0051 C.ar    
   4 C4            -2.3967    -0.0557     0.0098 C.ar    
   5 C5            -2.4362     1.3355     0.0012 C.ar    
   6 C6            -1.2483     2.0628    -0.0066 C.ar    
   7 C7            -3.8278    -0.5303     0.0241 C.3     
   8 C8            -4.6737     0.7242     0.0227 C.2     
   9 C9            -3.8602     1.7966     0.0094 C.2     
  10 S10           -6.3508     1.2683     0.0329 S.3     
  11 C11           -5.8093     2.9419     0.0180 C.2     
  12 N12           -4.5196     2.9761     0.0070 N.2     
  13 N13           -6.6392     4.0513     0.0170 N.pl3   
  14 N14            1.2213    -0.6876    -0.0137 N.am    
  15 C15            1.3480    -1.8549     0.6479 C.2     
  16 O16            0.4343    -2.2673     1.3308 O.2     
  17 C17            2.6249    -2.6479     0.5393 C.3     
  18 C18            1.2371     2.1553    -0.0317 C.2     
  19 C19            1.5313     3.1579    -0.8836 C.2     
  20 C20            2.7781     3.7210    -0.7025 C.2     
  21 C21            3.5014     3.1885     0.2863 C.2     
  22 S22            2.5890     1.9023     1.0647 S.3     
  23 H23           -1.1737    -1.8045     0.0116 H       
  24 H24           -1.2734     3.1425    -0.0129 H       
  25 H25           -4.0360    -1.1259    -0.8647 H       
  26 H26           -4.0219    -1.1144     0.9237 H       
  27 H27           -7.6023     3.9365     0.0249 H       
  28 H28           -6.2570     4.9428     0.0084 H       
  29 H29            1.9787    -0.3174    -0.4936 H       
  30 H30            3.3134    -2.3374     1.3252 H       
  31 H31            2.4037    -3.7096     0.6485 H       
  32 H32            3.0812    -2.4702    -0.4346 H       
  33 H33            0.8456     3.4936    -1.6475 H       
  34 H34            3.1424     4.5322    -1.3154 H       
  35 H35            4.4953     3.5035     0.5682 H       
@<TRIPOS>BOND
   1    1    2 ar
   2    1   18 1
   3    1    6 ar
   4    2    3 ar
   5    2   14 1
   6    3    4 ar
   7    3   23 1
   8    4    5 ar
   9    4    7 1
  10    5    6 ar
  11    5    9 1
  12    6   24 1
  13    7    8 1
  14    7   25 1
  15    7   26 1
  16    8    9 2
  17    8   10 1
  18    9   12 1
  19   10   11 1
  20   11   12 2
  21   11   13 1
  22   13   27 1
  23   13   28 1
  24   14   15 am
  25   14   29 1
  26   15   16 2
  27   15   17 1
  28   17   30 1
  29   17   31 1
  30   17   32 1
  31   18   19 2
  32   18   22 1
  33   19   20 1
  34   19   33 1
  35   20   21 2
  36   20   34 1
  37   21   22 1
  38   21   35 1

#	End of record

