#	Name: ASD05740223
#	Creating user name:	WinNT
#	Creation time:	15. 06. 2019 21:03

#	Modifying user name:	WinNT
#	Modification time:	15. 06. 2019 21:03

#	Program:	/corina/corina34_cracker 3.40 0067  02.08.2006

@<TRIPOS>MOLECULE
ASD05740223
  63   68    0    0    0
SMALL
NO_CHARGES


@<TRIPOS>ATOM
   1 C1             0.8739    -1.5050    -1.0469 C.3     
   2 N2             0.2402    -0.7079     0.0126 N.3     
   3 C3            -1.1094    -1.0534     0.1619 C.ar    
   4 C4            -1.4599    -2.3534     0.4973 C.ar    
   5 C5            -2.7906    -2.6945     0.6445 C.ar    
   6 C6            -3.7782    -1.7370     0.4569 C.ar    
   7 C7            -3.4291    -0.4353     0.1206 C.ar    
   8 C8            -2.0979    -0.0920    -0.0207 C.ar    
   9 N9            -5.1270    -2.0838     0.6064 N.pl3   
  10 C10           -5.4998    -3.0130     1.5579 C.ar    
  11 N11           -4.5769    -3.4785     2.3926 N.ar    
  12 N12           -6.7654    -3.4022     1.6071 N.ar    
  13 C13           -7.1588    -4.2930     2.5081 C.ar    
  14 C14           -6.2038    -4.8143     3.4087 C.ar    
  15 C15           -4.8803    -4.3681     3.3208 C.ar    
  16 N16           -8.4610    -4.7149     2.5841 N.am    
  17 C17           -8.8427    -5.6182     3.5045 C.2     
  18 C18           -7.9309    -6.1698     4.4271 C.2     
  19 C19           -6.6249    -5.7954     4.4041 C.2     
  20 C20           -9.4511    -4.1737     1.6497 C.3     
  21 O21          -10.0093    -5.9692     3.5422 O.2     
  22 C22           -9.4519    -4.9960     0.3868 C.ar    
  23 C23          -10.2670    -4.6299    -0.6858 C.ar    
  24 C24            0.9648    -0.8543     1.2827 C.3     
  25 C25            2.4123    -0.3927     1.0973 C.3     
  26 N26            3.0460    -1.1899     0.0378 N.3     
  27 C27            2.3213    -1.0435    -1.2323 C.3     
  28 C28          -10.2614    -5.3965    -1.8520 C.ar    
  29 C29           -9.4514    -6.5103    -1.9378 C.ar    
  30 C30           -8.6461    -6.8675    -0.8713 C.ar    
  31 C31           -8.6430    -6.1087     0.2859 C.ar    
  32 C32          -11.1325    -3.4358    -0.5866 C.2     
  33 O33          -11.1603    -2.5473     0.4187 O.3     
  34 N34          -11.9844    -1.6891     0.1831 N.2     
  35 C35          -12.5630    -1.9153    -0.9593 C.2     
  36 N36          -12.0252    -3.0324    -1.4731 N.2     
  37 C37          -13.6392    -1.0726    -1.5939 C.3     
  38 F38           -1.7574     1.1739    -0.3473 F       
  39 H39            0.8611    -2.5583    -0.7665 H       
  40 H40            0.3268    -1.3702    -1.9799 H       
  41 H41           -0.6922    -3.0989     0.6430 H       
  42 H42           -3.0627    -3.7066     0.9052 H       
  43 H43           -4.1975     0.3093    -0.0259 H       
  44 H44           -5.7992    -1.6715     0.0416 H       
  45 H45           -4.1239    -4.7455     3.9930 H       
  46 H46           -8.2710    -6.8929     5.1536 H       
  47 H47           -5.9171    -6.2111     5.1060 H       
  48 H48          -10.4398    -4.2093     2.1070 H       
  49 H49           -9.1983    -3.1408     1.4106 H       
  50 H50            0.4841    -0.2450     2.0480 H       
  51 H51            0.9531    -1.9001     1.5896 H       
  52 H52            2.4250     0.6605     0.8168 H       
  53 H53            2.9593    -0.5276     2.0303 H       
  54 H54            4.0179    -0.9411    -0.0697 H       
  55 H55            2.8021    -1.6528    -1.9976 H       
  56 H56            2.3330     0.0024    -1.5392 H       
  57 H57          -10.8899    -5.1189    -2.6852 H       
  58 H58           -9.4464    -7.1046    -2.8396 H       
  59 H59           -8.0142    -7.7404    -0.9435 H       
  60 H60           -8.0119    -6.3930     1.1150 H       
  61 H61          -13.1800    -0.3094    -2.2221 H       
  62 H62          -14.2840    -1.7055    -2.2036 H       
  63 H63          -14.2321    -0.5934    -0.8148 H       
@<TRIPOS>BOND
   1    1    2 1
   2    1   27 1
   3    1   39 1
   4    1   40 1
   5    2    3 1
   6    2   24 1
   7    3    4 ar
   8    3    8 ar
   9    4    5 ar
  10    4   41 1
  11    5    6 ar
  12    5   42 1
  13    6    7 ar
  14    6    9 1
  15    7    8 ar
  16    7   43 1
  17    8   38 1
  18    9   10 1
  19    9   44 1
  20   10   11 ar
  21   10   12 ar
  22   11   15 ar
  23   12   13 ar
  24   13   14 ar
  25   13   16 1
  26   14   15 ar
  27   14   19 1
  28   15   45 1
  29   16   17 am
  30   16   20 1
  31   17   18 1
  32   17   21 2
  33   18   19 2
  34   18   46 1
  35   19   47 1
  36   20   22 1
  37   20   48 1
  38   20   49 1
  39   22   23 ar
  40   22   31 ar
  41   23   28 ar
  42   23   32 1
  43   24   25 1
  44   24   50 1
  45   24   51 1
  46   25   26 1
  47   25   52 1
  48   25   53 1
  49   26   27 1
  50   26   54 1
  51   27   55 1
  52   27   56 1
  53   28   29 ar
  54   28   57 1
  55   29   30 ar
  56   29   58 1
  57   30   31 ar
  58   30   59 1
  59   31   60 1
  60   32   33 1
  61   32   36 2
  62   33   34 1
  63   34   35 2
  64   35   36 1
  65   35   37 1
  66   37   61 1
  67   37   62 1
  68   37   63 1

#	End of record

