#	Name: ASD08150444
#	Creating user name:	WinNT
#	Creation time:	15. 06. 2019 21:16

#	Modifying user name:	WinNT
#	Modification time:	15. 06. 2019 21:16

#	Program:	/corina/corina34_cracker 3.40 0067  02.08.2006

@<TRIPOS>MOLECULE
ASD08150444
  28   30    0    0    0
SMALL
NO_CHARGES


@<TRIPOS>ATOM
   1 C1             0.1383     1.0738    -0.7605 C.ar    
   2 N2             0.0092    -0.0151    -0.0347 N.ar    
   3 C3             1.0040    -0.4439     0.7499 C.ar    
   4 C4             2.2025     0.2839     0.7953 C.ar    
   5 C5             2.2858     1.4554    -0.0115 C.ar    
   6 N6             1.2449     1.7966    -0.7554 N.ar    
   7 C7             3.1469    -0.2812     1.6544 C.2     
   8 C8             2.7582    -1.4048     2.2816 C.2     
   9 S9             1.1225    -1.8383     1.8147 S.3     
  10 C10            3.5569    -2.1368     3.1913 C.2     
  11 O11            3.1188    -3.1433     3.7102 O.2     
  12 O12            5.2835     4.0297    -1.1098 O.3     
  13 C13            4.4048     4.4670    -0.0697 C.3     
  14 C14            3.1102     3.6517    -0.1263 C.3     
  15 N15            3.4326     2.2215    -0.0178 N.3     
  16 C16            4.3367     1.8077    -1.1008 C.3     
  17 C17            5.6190     2.6415    -1.0344 C.3     
  18 Cl18          -1.1864     1.5748    -1.7645 Cl      
  19 H19            4.1235     0.1547     1.8047 H       
  20 H20            4.5564    -1.8003     3.4244 H       
  21 H21            4.8850     4.3207     0.8979 H       
  22 H22            4.1758     5.5237    -0.2070 H       
  23 H23            2.4608     3.9421     0.6995 H       
  24 H24            2.6028     3.8397    -1.0726 H       
  25 H25            4.5826     0.7520    -0.9863 H       
  26 H26            3.8489     1.9662    -2.0626 H       
  27 H27            6.2681     2.3780    -1.8694 H       
  28 H28            6.1345     2.4421    -0.0949 H       
@<TRIPOS>BOND
   1    1    2 ar
   2    1    6 ar
   3    1   18 1
   4    2    3 ar
   5    3    4 ar
   6    3    9 1
   7    4    5 ar
   8    4    7 1
   9    5    6 ar
  10    5   15 1
  11    7    8 2
  12    7   19 1
  13    8    9 1
  14    8   10 1
  15   10   11 2
  16   10   20 1
  17   12   13 1
  18   12   17 1
  19   13   14 1
  20   13   21 1
  21   13   22 1
  22   14   15 1
  23   14   23 1
  24   14   24 1
  25   15   16 1
  26   16   17 1
  27   16   25 1
  28   16   26 1
  29   17   27 1
  30   17   28 1

#	End of record

