#	Name: ASD03090762
#	Creating user name:	WinNT
#	Creation time:	15. 06. 2019 20:29

#	Modifying user name:	WinNT
#	Modification time:	15. 06. 2019 20:29

#	Program:	/corina/corina34_cracker 3.40 0067  02.08.2006

@<TRIPOS>MOLECULE
ASD03090762
  39   41    0    0    0
SMALL
NO_CHARGES


@<TRIPOS>ATOM
   1 O1             0.0345    -0.0261     0.3070 O.2     
   2 C2            -0.0040     1.1824     0.2124 C.2     
   3 C3            -1.3261     1.9020     0.2841 C.3     
   4 C4            -2.3019     1.7042    -0.8777 C.3     
   5 C5            -2.5835     1.0520     0.4774 C.3     
   6 C6            -3.6952     1.6338     1.3121 C.ar    
   7 C7            -4.1129     0.9826     2.4576 C.ar    
   8 C8            -5.1327     1.5162     3.2233 C.ar    
   9 C9            -5.7344     2.7014     2.8436 C.ar    
  10 C10           -5.3161     3.3532     1.6986 C.ar    
  11 C11           -4.2934     2.8217     0.9353 C.ar    
  12 N12            1.1361     1.8822     0.0489 N.am    
  13 C13            2.4220     1.1832    -0.0147 C.3     
  14 C14            3.5168     2.1006     0.4657 C.ar    
  15 C15            3.3736     3.4696     0.3458 C.ar    
  16 C16            4.3781     4.3116     0.7860 C.ar    
  17 C17            5.5266     3.7849     1.3466 C.ar    
  18 C18            5.6719     2.4157     1.4680 C.ar    
  19 C19            4.6643     1.5720     1.0328 C.ar    
  20 F20            4.8051     0.2336     1.1514 F       
  21 C21            2.7043     0.7650    -1.4591 C.3     
  22 H22           -1.3027     2.8822     0.7604 H       
  23 H23           -2.9207     2.5542    -1.1654 H       
  24 H24           -1.9876     1.0536    -1.6938 H       
  25 H25           -2.4545    -0.0277     0.5528 H       
  26 H26           -3.6428     0.0566     2.7542 H       
  27 H27           -5.4595     1.0070     4.1178 H       
  28 H28           -6.5316     3.1180     3.4414 H       
  29 H29           -5.7864     4.2790     1.4018 H       
  30 H30           -3.9665     3.3309     0.0407 H       
  31 H31            1.1053     2.8488    -0.0268 H       
  32 H32            2.3858     0.2974     0.6195 H       
  33 H33            2.4769     3.8822    -0.0924 H       
  34 H34            4.2655     5.3815     0.6916 H       
  35 H35            6.3109     4.4435     1.6895 H       
  36 H36            6.5695     2.0045     1.9057 H       
  37 H37            1.9124     0.1014    -1.8066 H       
  38 H38            2.7405     1.6507    -2.0934 H       
  39 H39            3.6610     0.2448    -1.5064 H       
@<TRIPOS>BOND
   1    1    2 2
   2    2   12 am
   3    2    3 1
   4    3    4 1
   5    3    5 1
   6    3   22 1
   7    4    5 1
   8    4   23 1
   9    4   24 1
  10    5    6 1
  11    5   25 1
  12    6    7 ar
  13    6   11 ar
  14    7    8 ar
  15    7   26 1
  16    8    9 ar
  17    8   27 1
  18    9   10 ar
  19    9   28 1
  20   10   11 ar
  21   10   29 1
  22   11   30 1
  23   12   13 1
  24   12   31 1
  25   13   14 1
  26   13   21 1
  27   13   32 1
  28   14   15 ar
  29   14   19 ar
  30   15   16 ar
  31   15   33 1
  32   16   17 ar
  33   16   34 1
  34   17   18 ar
  35   17   35 1
  36   18   19 ar
  37   18   36 1
  38   19   20 1
  39   21   37 1
  40   21   38 1
  41   21   39 1

#	End of record

