#	Name: ASD01812738
#	Creating user name:	WinNT
#	Creation time:	15. 06. 2019 19:29

#	Modifying user name:	WinNT
#	Modification time:	15. 06. 2019 19:29

#	Program:	/corina/corina34_cracker 3.40 0067  02.08.2006

@<TRIPOS>MOLECULE
ASD01812738
  60   64    0    0    0
SMALL
NO_CHARGES


@<TRIPOS>ATOM
   1 N1            -0.0158     1.3147     0.0093 N.ar    
   2 C2             0.0021    -0.0041     0.0020 C.ar    
   3 C3             1.1989    -0.7033    -0.0127 C.ar    
   4 C4             2.3829    -0.0013    -0.0202 C.ar    
   5 C5             2.3448     1.3978    -0.0128 C.ar    
   6 C6             1.0955     2.0332     0.0025 C.ar    
   7 C7             3.8373    -0.3889    -0.0363 C.3     
   8 N8             4.5955     0.8684    -0.0373 N.am    
   9 C9             3.7280     1.8961    -0.0237 C.2     
  10 C10            6.0558     0.9844    -0.0504 C.3     
  11 C11            6.5432     1.0311    -1.4757 C.ar    
  12 C12            6.4763     2.2161    -2.1897 C.ar    
  13 C13            6.9229     2.2631    -3.4975 C.ar    
  14 C14            7.4401     1.1165    -4.0950 C.ar    
  15 C15            7.5046    -0.0723    -3.3712 C.ar    
  16 C16            7.0612    -0.1080    -2.0646 C.ar    
  17 O17            1.0255     3.3856     0.0100 O.3     
  18 O18            4.0429     3.0706    -0.0212 O.2     
  19 C19           -0.2795     3.9677     0.0251 C.3     
  20 C20            7.2398     1.6635    -6.5690 C.2     
  21 C21            7.9208     1.1606    -5.4991 C.2     
  22 C22            9.1631     0.6914    -5.9686 C.2     
  23 N23            9.2174     0.9056    -7.2565 N.2     
  24 N24            8.0221     1.5148    -7.6569 N.pl3   
  25 C25            7.6801     1.9200    -9.0226 C.3     
  26 C26           -0.1576     5.4928     0.0317 C.3     
  27 C27            0.4689     5.9625    -1.2848 C.3     
  28 C28           -1.5490     6.1174     0.1737 C.3     
  29 C29            0.5144     7.4926    -1.3020 C.3     
  30 C30           10.2419     0.0540    -5.1313 C.3     
  31 F31            5.9737     3.3271    -1.6080 F       
  32 C32           -1.4256     7.6416     0.1001 C.3     
  33 O33           -0.8075     8.0091    -1.1348 O.3     
  34 H34           -0.9309    -0.5480     0.0080 H       
  35 H35            1.2023    -1.7833    -0.0178 H       
  36 H36            4.0797    -0.9721     0.8522 H       
  37 H37            4.0624    -0.9631    -0.9351 H       
  38 H38            6.3524     1.8979     0.4651 H       
  39 H39            6.4932     0.1235     0.4552 H       
  40 H40            6.8705     3.1869    -4.0545 H       
  41 H41            7.9047    -0.9640    -3.8308 H       
  42 H42            7.1153    -1.0284    -1.5022 H       
  43 H43           -0.8289     3.6509    -0.8614 H       
  44 H44           -0.8123     3.6419     0.9185 H       
  45 H45            6.2512     2.0978    -6.5488 H       
  46 H46            8.0088     2.9456    -9.1904 H       
  47 H47            8.1763     1.2586    -9.7329 H       
  48 H48            6.6007     1.8572    -9.1607 H       
  49 H49            0.4692     5.8049     0.8671 H       
  50 H50            1.4812     5.5670    -1.3680 H       
  51 H51           -0.1321     5.6065    -2.1216 H       
  52 H52           -2.1908     5.7646    -0.6337 H       
  53 H53           -1.9799     5.8328     1.1336 H       
  54 H54            1.1485     7.8466    -0.4891 H       
  55 H55            0.9201     7.8336    -2.2545 H       
  56 H56           10.0881    -1.0246    -5.1004 H       
  57 H57           11.2166     0.2696    -5.5691 H       
  58 H58           10.2013     0.4560    -4.1190 H       
  59 H59           -2.4175     8.0898     0.1577 H       
  60 H60           -0.8169     7.9975     0.9314 H       
@<TRIPOS>BOND
   1    1    2 ar
   2    1    6 ar
   3    2    3 ar
   4    2   34 1
   5    3    4 ar
   6    3   35 1
   7    4    7 1
   8    4    5 ar
   9    5    6 ar
  10    5    9 1
  11    6   17 1
  12    7    8 1
  13    7   36 1
  14    7   37 1
  15    8    9 am
  16    8   10 1
  17    9   18 2
  18   10   11 1
  19   10   38 1
  20   10   39 1
  21   11   12 ar
  22   11   16 ar
  23   12   13 ar
  24   12   31 1
  25   13   14 ar
  26   13   40 1
  27   14   15 ar
  28   14   21 1
  29   15   16 ar
  30   15   41 1
  31   16   42 1
  32   17   19 1
  33   19   26 1
  34   19   43 1
  35   19   44 1
  36   20   21 2
  37   20   24 1
  38   20   45 1
  39   21   22 1
  40   22   23 2
  41   22   30 1
  42   23   24 1
  43   24   25 1
  44   25   46 1
  45   25   47 1
  46   25   48 1
  47   26   28 1
  48   26   27 1
  49   26   49 1
  50   27   29 1
  51   27   50 1
  52   27   51 1
  53   28   32 1
  54   28   52 1
  55   28   53 1
  56   29   33 1
  57   29   54 1
  58   29   55 1
  59   30   56 1
  60   30   57 1
  61   30   58 1
  62   32   33 1
  63   32   59 1
  64   32   60 1

#	End of record

