#	Name: ASD03091349
#	Creating user name:	WinNT
#	Creation time:	15. 06. 2019 20:30

#	Modifying user name:	WinNT
#	Modification time:	15. 06. 2019 20:30

#	Program:	/corina/corina34_cracker 3.40 0067  02.08.2006

@<TRIPOS>MOLECULE
ASD03091349
  32   33    0    0    0
SMALL
NO_CHARGES


@<TRIPOS>ATOM
   1 C1            -0.0166     1.3763     0.0096 C.ar    
   2 C2             0.0021    -0.0041     0.0020 C.ar    
   3 C3             1.2110    -0.6897    -0.0133 C.ar    
   4 C4             2.4049     0.0068    -0.0210 C.ar    
   5 C5             2.3951     1.4039    -0.0134 C.ar    
   6 C6             1.1727     2.0889     0.0021 C.ar    
   7 O7             1.1531     3.4462     0.0091 O.3     
   8 O8             1.2192    -2.0495    -0.0202 O.3     
   9 C9             3.6664     2.1548    -0.0210 C.2     
  10 C10            4.9389     1.4369    -0.0366 C.2     
  11 O11            3.6543     3.3726    -0.0144 O.2     
  12 C12            6.1030     2.1245    -0.0436 C.2     
  13 C13            7.3824     1.4027    -0.0593 C.ar    
  14 C14            8.5895     2.1124    -0.0666 C.ar    
  15 C15            9.7854     1.4312    -0.0813 C.ar    
  16 C16            9.7963     0.0408    -0.0889 C.ar    
  17 C17            8.6005    -0.6689    -0.0817 C.ar    
  18 C18            7.3991     0.0024    -0.0612 C.ar    
  19 O19           10.9783    -0.6261    -0.1039 O.3     
  20 O20           11.5115    -0.9269     1.2315 O.3     
  21 H21           -0.9599     1.9024     0.0169 H       
  22 H22           -0.9274    -0.5540     0.0083 H       
  23 H23            3.3433    -0.5278    -0.0325 H       
  24 H24            1.1388     3.8439    -0.8722 H       
  25 H25            1.2130    -2.4383    -0.9055 H       
  26 H26            4.9496     0.3569    -0.0425 H       
  27 H27            6.0923     3.2044    -0.0377 H       
  28 H28            8.5821     3.1924    -0.0610 H       
  29 H29           10.7169     1.9776    -0.0873 H       
  30 H30            8.6146    -1.7487    -0.0877 H       
  31 H31            6.4710    -0.5497    -0.0553 H       
  32 H32           12.3537    -1.4021     1.2208 H       
@<TRIPOS>BOND
   1    1    2 ar
   2    1    6 ar
   3    1   21 1
   4    2    3 ar
   5    2   22 1
   6    3    4 ar
   7    3    8 1
   8    4    5 ar
   9    4   23 1
  10    5    6 ar
  11    5    9 1
  12    6    7 1
  13    7   24 1
  14    8   25 1
  15    9   10 1
  16    9   11 2
  17   10   12 2
  18   10   26 1
  19   12   13 1
  20   12   27 1
  21   13   14 ar
  22   13   18 ar
  23   14   15 ar
  24   14   28 1
  25   15   16 ar
  26   15   29 1
  27   16   17 ar
  28   16   19 1
  29   17   18 ar
  30   17   30 1
  31   18   31 1
  32   19   20 1
  33   20   32 1

#	End of record

