#	Name: ASD05430034
#	Creating user name:	WinNT
#	Creation time:	15. 06. 2019 20:59

#	Modifying user name:	WinNT
#	Modification time:	15. 06. 2019 20:59

#	Program:	/corina/corina34_cracker 3.40 0067  02.08.2006

@<TRIPOS>MOLECULE
ASD05430034
  63   69    0    0    0
SMALL
NO_CHARGES


@<TRIPOS>ATOM
   1 C1             0.0161     1.2023     0.4762 C.ar    
   2 C2            -0.0157     0.0443    -0.3036 C.ar    
   3 C3             1.1264    -0.3833    -0.9629 C.ar    
   4 C4             2.3079     0.3252    -0.8602 C.ar    
   5 C5             2.3663     1.4853    -0.0881 C.ar    
   6 C6             1.2086     1.9290     0.5877 C.ar    
   7 C7             4.8390     0.0773     0.2300 C.3     
   8 C8             4.7967     1.5834     0.1046 C.2     
   9 C9             3.6221     2.2391     0.0215 C.2     
  10 C10            6.1762    -0.3651     0.8144 C.3     
  11 C11            6.8412     0.6632     1.7268 C.3     
  12 N12            7.0571     1.8992     0.9744 N.pl3   
  13 C13            6.0754     2.3137     0.0764 C.2     
  14 N14           -1.2045    -0.6873    -0.4197 N.pl3   
  15 C15           -1.9993    -1.1037     0.6003 C.2     
  16 C16           -1.7890    -1.1133    -1.5844 C.2     
  17 C17           -2.9097    -1.7752    -1.2391 C.2     
  18 N18           -3.0135    -1.7540     0.0980 N.2     
  19 C19           -3.8814    -2.4242    -2.1907 C.3     
  20 N20           -0.3272     2.9899     1.8038 N.2     
  21 O21           -0.9130     1.8486     1.2099 O.3     
  22 C22            8.2564     2.7180     1.1463 C.3     
  23 C23            8.6480     3.2935    -0.2191 C.3     
  24 O24            7.5340     3.9573    -0.8070 O.3     
  25 N25            6.2972     3.2846    -0.7486 N.2     
  26 C26            7.9697     3.8425     2.1078 C.ar    
  27 C27            8.9202     4.2125     3.0410 C.ar    
  28 C28            8.6587     5.2439     3.9229 C.ar    
  29 C29            7.4441     5.9066     3.8716 C.ar    
  30 C30            6.4929     5.5352     2.9366 C.ar    
  31 C31            6.7587     4.5070     2.0522 C.ar    
  32 F32            7.1872     6.9147     4.7336 F       
  33 C33            0.9220     3.0691     1.4575 C.2     
  34 C34            1.8966     4.1404     1.8738 C.3     
  35 C35            6.1364    -1.7772     1.4222 C.3     
  36 O36            7.3995    -1.9750     0.7546 O.3     
  37 C37            7.1341    -0.9571    -0.2323 C.3     
  38 H38            1.0922    -1.2805    -1.5632 H       
  39 H39            3.1895    -0.0205    -1.3794 H       
  40 H40            4.0320    -0.2535     0.8838 H       
  41 H41            4.7094    -0.3709    -0.7552 H       
  42 H42            3.6043     3.3189     0.0355 H       
  43 H43            6.1950     0.8646     2.5812 H       
  44 H44            7.7988     0.2764     2.0753 H       
  45 H45           -1.8216    -0.9267     1.6508 H       
  46 H46           -1.4213    -0.9492    -2.5866 H       
  47 H47           -3.5818    -3.4572    -2.3674 H       
  48 H48           -4.8816    -2.4050    -1.7578 H       
  49 H49           -3.8837    -1.8799    -3.1350 H       
  50 H50            9.0690     2.1026     1.5321 H       
  51 H51            9.4656     4.0030    -0.0914 H       
  52 H52            8.9729     2.4841    -0.8728 H       
  53 H53            9.8674     3.6952     3.0810 H       
  54 H54            9.4012     5.5325     4.6521 H       
  55 H55            5.5452     6.0514     2.8957 H       
  56 H56            6.0170     4.2171     1.3228 H       
  57 H57            1.9385     4.9121     1.1051 H       
  58 H58            1.5703     4.5826     2.8151 H       
  59 H59            2.8860     3.7015     2.0023 H       
  60 H60            6.2052    -1.7915     2.5099 H       
  61 H61            5.3307    -2.4014     1.0358 H       
  62 H62            6.6348    -1.3294    -1.1268 H       
  63 H63            7.9924    -0.3227    -0.4536 H       
@<TRIPOS>BOND
   1    1    2 ar
   2    1    6 ar
   3    1   21 1
   4    2    3 ar
   5    2   14 1
   6    3    4 ar
   7    3   38 1
   8    4    5 ar
   9    4   39 1
  10    5    6 ar
  11    5    9 1
  12    6   33 1
  13    7    8 1
  14    7   10 1
  15    7   40 1
  16    7   41 1
  17    8    9 2
  18    8   13 1
  19    9   42 1
  20   10   11 1
  21   10   35 1
  22   10   37 1
  23   11   12 1
  24   11   43 1
  25   11   44 1
  26   12   13 1
  27   12   22 1
  28   13   25 2
  29   14   15 1
  30   14   16 1
  31   15   18 2
  32   15   45 1
  33   16   17 2
  34   16   46 1
  35   17   18 1
  36   17   19 1
  37   19   47 1
  38   19   48 1
  39   19   49 1
  40   20   21 1
  41   20   33 2
  42   22   23 1
  43   22   26 1
  44   22   50 1
  45   23   24 1
  46   23   51 1
  47   23   52 1
  48   24   25 1
  49   26   27 ar
  50   26   31 ar
  51   27   28 ar
  52   27   53 1
  53   28   29 ar
  54   28   54 1
  55   29   30 ar
  56   29   32 1
  57   30   31 ar
  58   30   55 1
  59   31   56 1
  60   33   34 1
  61   34   57 1
  62   34   58 1
  63   34   59 1
  64   35   36 1
  65   35   60 1
  66   35   61 1
  67   36   37 1
  68   37   62 1
  69   37   63 1

#	End of record

