#	Name: ASD01903042
#	Creating user name:	WinNT
#	Creation time:	15. 06. 2019 19:54

#	Modifying user name:	WinNT
#	Modification time:	15. 06. 2019 19:54

#	Program:	/corina/corina34_cracker 3.40 0067  02.08.2006

@<TRIPOS>MOLECULE
ASD01903042
  47   49    0    0    0
SMALL
NO_CHARGES


@<TRIPOS>ATOM
   1 C1             0.1899     1.2933    -0.2782 C.ar    
   2 C2             0.3238    -0.0811    -0.3009 C.ar    
   3 C3             1.5632    -0.6624    -0.0587 C.ar    
   4 C4             2.6656     0.1388     0.2059 C.ar    
   5 C5             2.5312     1.5132     0.2285 C.ar    
   6 C6             1.2935     2.0942    -0.0134 C.ar    
   7 N7             1.1579     3.4879     0.0092 N.am    
   8 C8             2.1592     4.2697    -0.4410 C.2     
   9 O9             3.2116     3.7701    -0.7873 O.2     
  10 C10            1.9770     5.7380    -0.5136 C.ar    
  11 N11            0.8254     6.2778    -0.1340 N.ar    
  12 C12            0.6229     7.5765    -0.1828 C.ar    
  13 C13            1.6121     8.4344    -0.6356 C.ar    
  14 C14            2.8305     7.9127    -1.0420 C.ar    
  15 C15            3.0179     6.5413    -0.9745 C.ar    
  16 Cl16          -1.0552    -1.0826    -0.6312 Cl      
  17 N17            1.6995    -2.0552    -0.0810 N.3     
  18 C18            0.9654    -2.6739     1.0308 C.3     
  19 C19            0.9879    -4.1975     0.8683 C.3     
  20 N20            2.3861    -4.6318     0.7282 N.am    
  21 C21            3.2261    -3.9601    -0.2750 C.3     
  22 C22            3.1155    -2.4459    -0.0676 C.3     
  23 C23            2.8844    -5.6187     1.4989 C.2     
  24 O24            2.1775    -6.1614     2.3215 O.2     
  25 C25            4.3201    -6.0480     1.3385 C.3     
  26 C26            4.6284    -7.1758     2.3254 C.3     
  27 H27           -0.7718     1.7455    -0.4707 H       
  28 H28            3.6284    -0.3126     0.3944 H       
  29 H29            3.3890     2.1362     0.4346 H       
  30 H30            0.3434     3.8905     0.3487 H       
  31 H31           -0.3276     7.9795     0.1342 H       
  32 H32            1.4355     9.4993    -0.6721 H       
  33 H33            3.6173     8.5607    -1.3990 H       
  34 H34            3.9545     6.1007    -1.2829 H       
  35 H35            1.4377    -2.4017     1.9747 H       
  36 H36           -0.0665    -2.3227     1.0254 H       
  37 H37            0.5453    -4.6660     1.7473 H       
  38 H38            0.4260    -4.4791    -0.0222 H       
  39 H39            4.2633    -4.2717    -0.1520 H       
  40 H40            2.8794    -4.2189    -1.2755 H       
  41 H41            3.6430    -1.9294    -0.8695 H       
  42 H42            3.5579    -2.1769     0.8916 H       
  43 H43            4.4820    -6.4018     0.3203 H       
  44 H44            4.9769    -5.2012     1.5377 H       
  45 H45            4.4666    -6.8220     3.3436 H       
  46 H46            3.9716    -8.0225     2.1262 H       
  47 H47            5.6668    -7.4862     2.2094 H       
@<TRIPOS>BOND
   1    1    2 ar
   2    1    6 ar
   3    1   27 1
   4    2    3 ar
   5    2   16 1
   6    3    4 ar
   7    3   17 1
   8    4    5 ar
   9    4   28 1
  10    5    6 ar
  11    5   29 1
  12    6    7 1
  13    7    8 am
  14    7   30 1
  15    8    9 2
  16    8   10 1
  17   10   11 ar
  18   10   15 ar
  19   11   12 ar
  20   12   13 ar
  21   12   31 1
  22   13   14 ar
  23   13   32 1
  24   14   15 ar
  25   14   33 1
  26   15   34 1
  27   17   18 1
  28   17   22 1
  29   18   19 1
  30   18   35 1
  31   18   36 1
  32   19   20 1
  33   19   37 1
  34   19   38 1
  35   20   21 1
  36   20   23 am
  37   21   22 1
  38   21   39 1
  39   21   40 1
  40   22   41 1
  41   22   42 1
  42   23   24 2
  43   23   25 1
  44   25   26 1
  45   25   43 1
  46   25   44 1
  47   26   45 1
  48   26   46 1
  49   26   47 1

#	End of record

