#	Name: ASD01911451
#	Creating user name:	WinNT
#	Creation time:	15. 06. 2019 19:57

#	Modifying user name:	WinNT
#	Modification time:	15. 06. 2019 19:57

#	Program:	/corina/corina34_cracker 3.40 0067  02.08.2006

@<TRIPOS>MOLECULE
ASD01911451
  27   28    0    0    0
SMALL
NO_CHARGES


@<TRIPOS>ATOM
   1 C1            -0.0017     1.5145    -0.1597 C.3     
   2 C2             0.0265     0.0041    -0.2462 C.2     
   3 N3             1.2721    -0.4272    -0.0124 N.am    
   4 C4             1.4590     1.8852     0.1682 C.3     
   5 C5             1.6182    -1.7816    -0.0230 C.ar    
   6 C6             0.6189    -2.7472    -0.0186 C.ar    
   7 C7             0.9747    -4.0845    -0.0292 C.ar    
   8 C8             2.3245    -4.4105    -0.0438 C.ar    
   9 C9             3.2642    -3.3978    -0.0474 C.ar    
  10 N10            2.8939    -2.1317    -0.0425 N.ar    
  11 I11            2.9292    -6.4162    -0.0597 I       
  12 C12           -0.4241     2.1228    -1.4986 C.3     
  13 C13            2.1591     0.5452     0.2324 C.2     
  14 O14            3.3363     0.3787     0.4688 O.2     
  15 C15           -0.9378     1.9723     0.9606 C.3     
  16 O16           -0.9276    -0.7033    -0.4885 O.2     
  17 H17            1.8848     2.5029    -0.6226 H       
  18 H18            1.5188     2.3957     1.1294 H       
  19 H19           -0.4216    -2.4578    -0.0068 H       
  20 H20            0.2200    -4.8570    -0.0258 H       
  21 H21            4.3153    -3.6458    -0.0587 H       
  22 H22           -1.4299     1.7860    -1.7495 H       
  23 H23           -0.4132     3.2101    -1.4232 H       
  24 H24            0.2700     1.8056    -2.2768 H       
  25 H25           -0.6043     1.5495     1.9083 H       
  26 H26           -0.9244     3.0604     1.0234 H       
  27 H27           -1.9517     1.6331     0.7482 H       
@<TRIPOS>BOND
   1    1    2 1
   2    1    4 1
   3    1   12 1
   4    1   15 1
   5    2    3 am
   6    2   16 2
   7    3    5 1
   8    3   13 am
   9    4   13 1
  10    4   17 1
  11    4   18 1
  12    5    6 ar
  13    5   10 ar
  14    6    7 ar
  15    6   19 1
  16    7    8 ar
  17    7   20 1
  18    8    9 ar
  19    8   11 1
  20    9   10 ar
  21    9   21 1
  22   12   22 1
  23   12   23 1
  24   12   24 1
  25   13   14 2
  26   15   25 1
  27   15   26 1
  28   15   27 1

#	End of record

