#	Name: ASD09116164
#	Creating user name:	WinNT
#	Creation time:	15. 06. 2019 21:20

#	Modifying user name:	WinNT
#	Modification time:	15. 06. 2019 21:20

#	Program:	/corina/corina34_cracker 3.40 0067  02.08.2006

@<TRIPOS>MOLECULE
ASD09116164
  70   76    0    0    0
SMALL
NO_CHARGES


@<TRIPOS>ATOM
   1 N1            -0.0266     1.4808     0.1051 N.2     
   2 C2            -0.0140     0.0097     0.1909 C.3     
   3 C3             1.2225     1.8593     0.0812 C.2     
   4 N4             2.0842     0.8235     0.1403 N.2     
   5 C5             1.4646    -0.3259     0.2082 C.2     
   6 N6             1.6191     3.1791     0.0037 N.pl3   
   7 C7             2.9774     3.5091     0.0982 C.ar    
   8 C8             3.4715     4.6166    -0.5783 C.ar    
   9 C9             3.8283     2.7320     0.8730 C.ar    
  10 C10            5.1669     3.0574     0.9666 C.ar    
  11 C11            5.6623     4.1617     0.2855 C.ar    
  12 C12            4.8101     4.9419    -0.4851 C.ar    
  13 N13            2.0278    -1.5619     0.2800 N.pl3   
  14 C14           -0.6793    -0.4545     1.4608 C.ar    
  15 C15           -1.3071     0.4672     2.2732 C.ar    
  16 N16           -0.6560    -1.7377     1.7742 N.ar    
  17 C17           -1.2213    -2.1927     2.8701 C.ar    
  18 C18           -1.8672    -1.3309     3.7428 C.ar    
  19 C19           -1.9221     0.0260     3.4515 C.ar    
  20 C20           -1.3371    -3.6025     3.4564 C.3     
  21 C21           -2.8485    -3.9620     3.2980 C.3     
  22 C22           -3.5679    -2.9981     4.2719 C.3     
  23 C23           -2.4080    -2.1646     4.9037 C.3     
  24 C24           -1.2875    -3.2656     4.9920 C.3     
  25 C25           -2.6048     0.9779     4.3621 C.ar    
  26 C26           -1.9559     2.1409     4.7722 C.ar    
  27 N27            7.0188     4.4918     0.3807 N.3     
  28 C28            7.3266     5.6889    -0.4143 C.3     
  29 C29            8.7982     6.0621    -0.2207 C.3     
  30 N30            9.6450     4.9318    -0.6266 N.3     
  31 C31            9.3373     3.7348     0.1684 C.3     
  32 C32            7.8657     3.3615    -0.0252 C.3     
  33 C33           11.0691     5.2784    -0.5267 C.3     
  34 C34           -2.5959     3.0231     5.6189 C.ar    
  35 C35           -3.8790     2.7546     6.0604 C.ar    
  36 C36           -4.5276     1.6014     5.6569 C.ar    
  37 C37           -3.8994     0.7150     4.8058 C.ar    
  38 H38           -0.5005    -0.4304    -0.6796 H       
  39 H39            0.9574     3.8781    -0.1163 H       
  40 H40            2.8088     5.2232    -1.1776 H       
  41 H41            3.4431     1.8733     1.4026 H       
  42 H42            5.8286     2.4534     1.5698 H       
  43 H43            5.1954     5.8004    -1.0151 H       
  44 H44            2.9932    -1.6556     0.2842 H       
  45 H45            1.4639    -2.3498     0.3271 H       
  46 H46           -1.3237     1.5131     2.0046 H       
  47 H47           -0.6254    -4.3392     3.0839 H       
  48 H48           -3.1777    -3.7863     2.2739 H       
  49 H49           -3.0267    -4.9983     3.5851 H       
  50 H50           -4.2539    -2.3480     3.7289 H       
  51 H51           -4.0991    -3.5583     5.0413 H       
  52 H52           -2.6475    -1.6209     5.8176 H       
  53 H53           -1.5848    -4.1113     5.6121 H       
  54 H54           -0.3248    -2.8544     5.2956 H       
  55 H55           -0.9540     2.3514     4.4283 H       
  56 H56            7.1391     5.4835    -1.4682 H       
  57 H57            6.6957     6.5151    -0.0866 H       
  58 H58            9.0360     6.9326    -0.8321 H       
  59 H59            8.9795     6.2939     0.8288 H       
  60 H60            9.9682     2.9085    -0.1593 H       
  61 H61            9.5248     3.9401     1.2223 H       
  62 H62            7.6279     2.4910     0.5862 H       
  63 H63            7.6843     3.1297    -1.0747 H       
  64 H64           11.3075     5.5414     0.5039 H       
  65 H65           11.6732     4.4244    -0.8328 H       
  66 H66           11.2831     6.1266    -1.1769 H       
  67 H67           -2.0938     3.9247     5.9376 H       
  68 H68           -4.3760     3.4477     6.7229 H       
  69 H69           -5.5293     1.3965     6.0050 H       
  70 H70           -4.4067    -0.1850     4.4914 H       
@<TRIPOS>BOND
   1    1    2 1
   2    1    3 2
   3    2   14 1
   4    2    5 1
   5    2   38 1
   6    3    4 1
   7    3    6 1
   8    4    5 2
   9    5   13 1
  10    6    7 1
  11    6   39 1
  12    7    8 ar
  13    7    9 ar
  14    8   12 ar
  15    8   40 1
  16    9   10 ar
  17    9   41 1
  18   10   11 ar
  19   10   42 1
  20   11   12 ar
  21   11   27 1
  22   12   43 1
  23   13   44 1
  24   13   45 1
  25   14   15 ar
  26   14   16 ar
  27   15   19 ar
  28   15   46 1
  29   16   17 ar
  30   17   18 ar
  31   17   20 1
  32   18   19 ar
  33   18   23 1
  34   19   25 1
  35   20   21 1
  36   20   24 1
  37   20   47 1
  38   21   22 1
  39   21   48 1
  40   21   49 1
  41   22   23 1
  42   22   50 1
  43   22   51 1
  44   23   24 1
  45   23   52 1
  46   24   53 1
  47   24   54 1
  48   25   26 ar
  49   25   37 ar
  50   26   34 ar
  51   26   55 1
  52   27   28 1
  53   27   32 1
  54   28   29 1
  55   28   56 1
  56   28   57 1
  57   29   30 1
  58   29   58 1
  59   29   59 1
  60   30   31 1
  61   30   33 1
  62   31   32 1
  63   31   60 1
  64   31   61 1
  65   32   62 1
  66   32   63 1
  67   33   64 1
  68   33   65 1
  69   33   66 1
  70   34   35 ar
  71   34   67 1
  72   35   36 ar
  73   35   68 1
  74   36   37 ar
  75   36   69 1
  76   37   70 1

#	End of record

