#	Name: ASD01231402
#	Creating user name:	WinNT
#	Creation time:	15. 06. 2019 19:15

#	Modifying user name:	WinNT
#	Modification time:	15. 06. 2019 19:15

#	Program:	/corina/corina34_cracker 3.40 0067  02.08.2006

@<TRIPOS>MOLECULE
ASD01231402
  52   54    0    0    0
SMALL
NO_CHARGES


@<TRIPOS>ATOM
   1 C1             0.8637    -1.3529     3.5334 C.ar    
   2 C2             1.4288    -1.7314     2.3308 C.ar    
   3 C3             0.6812    -1.6675     1.1639 C.ar    
   4 C4            -0.6329    -1.2232     1.2080 C.ar    
   5 C5            -1.1929    -0.8460     2.4128 C.ar    
   6 C6            -0.4455    -0.9107     3.5746 C.ar    
   7 S7             1.8102    -1.4408     5.0170 S.o2    
   8 O8             0.8763    -1.5399     6.0835 O.2     
   9 O9             2.8306    -2.4023     4.7856 O.2     
  10 N10            2.5740     0.0173     5.1983 N.am    
  11 O11            1.2347    -2.0387    -0.0203 O.3     
  12 C12            6.3032    -4.4764     0.0922 C.3     
  13 C13            5.8488    -5.9308    -0.1534 C.3     
  14 C14            4.3875    -5.9097     0.3429 C.3     
  15 C15            3.9347    -4.4743     0.1807 C.ar    
  16 C16            2.6609    -3.9335     0.1617 C.ar    
  17 C17            2.4861    -2.5680    -0.0014 C.ar    
  18 C18            3.5927    -1.7432    -0.1459 C.ar    
  19 C19            4.8615    -2.2856    -0.1265 C.ar    
  20 C20            5.0357    -3.6504     0.0366 C.ar    
  21 S21            7.9514    -7.6291    -0.0558 S.o2    
  22 O22            8.4603    -8.4610     0.9777 O.2     
  23 O23            7.4333    -8.1859    -1.2561 O.2     
  24 N24            6.6530    -6.8678     0.6349 N.am    
  25 C25            9.1169    -6.2895    -0.4266 C.3     
  26 C26            9.4986    -5.5721     0.8698 C.3     
  27 C27           10.3736    -6.8721    -1.0762 C.3     
  28 C28            1.7879     1.2333     5.4211 C.3     
  29 H29            2.4517    -2.0765     2.2991 H       
  30 H30           -1.2169    -1.1721     0.3010 H       
  31 H31           -2.2155    -0.5002     2.4477 H       
  32 H32           -0.8853    -0.6152     4.5157 H       
  33 H33            3.5419     0.0663     5.1570 H       
  34 H34            6.7704    -4.3867     1.0729 H       
  35 H35            6.9956    -4.1597    -0.6878 H       
  36 H36            5.8941    -6.1770    -1.2143 H       
  37 H37            3.7717    -6.5716    -0.2659 H       
  38 H38            4.3397    -6.2052     1.3910 H       
  39 H39            1.8008    -4.5770     0.2739 H       
  40 H40            3.4612    -0.6789    -0.2736 H       
  41 H41            5.7224    -1.6434    -0.2393 H       
  42 H42            6.4250    -7.0424     1.5614 H       
  43 H43            8.6499    -5.5805    -1.1103 H       
  44 H44           10.1989    -4.7671     0.6469 H       
  45 H45            8.6032    -5.1570     1.3325 H       
  46 H46            9.9656    -6.2811     1.5534 H       
  47 H47           10.1017    -7.3832    -1.9998 H       
  48 H48           11.0740    -6.0671    -1.2990 H       
  49 H49           10.8406    -7.5811    -0.3926 H       
  50 H50            1.1159     1.3911     4.5775 H       
  51 H51            1.2043     1.1263     6.3354 H       
  52 H52            2.4586     2.0872     5.5160 H       
@<TRIPOS>BOND
   1    1    2 ar
   2    1    6 ar
   3    1    7 1
   4    2    3 ar
   5    2   29 1
   6    3    4 ar
   7    3   11 1
   8    4    5 ar
   9    4   30 1
  10    5    6 ar
  11    5   31 1
  12    6   32 1
  13    7    8 2
  14    7    9 2
  15    7   10 am
  16   10   28 1
  17   10   33 1
  18   11   17 1
  19   12   13 1
  20   12   20 1
  21   12   34 1
  22   12   35 1
  23   13   14 1
  24   13   24 1
  25   13   36 1
  26   14   15 1
  27   14   37 1
  28   14   38 1
  29   15   16 ar
  30   15   20 ar
  31   16   17 ar
  32   16   39 1
  33   17   18 ar
  34   18   19 ar
  35   18   40 1
  36   19   20 ar
  37   19   41 1
  38   21   22 2
  39   21   23 2
  40   21   24 am
  41   21   25 1
  42   24   42 1
  43   25   26 1
  44   25   27 1
  45   25   43 1
  46   26   44 1
  47   26   45 1
  48   26   46 1
  49   27   47 1
  50   27   48 1
  51   27   49 1
  52   28   50 1
  53   28   51 1
  54   28   52 1

#	End of record

