#	Name: ASD07930627
#	Creating user name:	WinNT
#	Creation time:	15. 06. 2019 21:12

#	Modifying user name:	WinNT
#	Modification time:	15. 06. 2019 21:12

#	Program:	/corina/corina34_cracker 3.40 0067  02.08.2006

@<TRIPOS>MOLECULE
ASD07930627
  49   52    0    0    0
SMALL
NO_CHARGES


@<TRIPOS>ATOM
   1 C1            -0.0342     1.4581     0.0424 C.3     
   2 N2             0.7953    -0.4134    -2.1303 N.2     
   3 N3            -0.8904    -1.7835    -1.2685 N.pl3   
   4 C4            -0.9149    -2.8271    -0.2383 C.3     
   5 C5            -1.2299    -2.1885     1.1215 C.3     
   6 S6             0.0062    -0.8914     1.4434 S.o2    
   7 N7            -0.0140    -0.0067     0.0315 N.am    
   8 C8            -0.0112    -0.7260    -1.1552 C.2     
   9 C9             0.4501    -3.5154    -0.1756 C.3     
  10 C10           -1.9764    -3.8423    -0.5755 C.ar    
  11 C11           -2.8068    -3.6381    -1.6597 C.ar    
  12 C12           -3.7847    -4.5743    -1.9703 C.ar    
  13 C13           -3.9250    -5.7139    -1.1895 C.ar    
  14 C14           -3.0923    -5.9142    -0.1058 C.ar    
  15 C15           -2.1147    -4.9822     0.1989 C.ar    
  16 O16           -0.4575     0.0117     2.4377 O.2     
  17 O17            1.3141    -1.4441     1.5003 O.2     
  18 N18           -4.6275    -4.3691    -3.0683 N.am    
  19 C19           -5.0471    -5.4194    -3.8013 C.2     
  20 O20           -4.6171    -6.5334    -3.5694 O.2     
  21 C21           -6.0258    -5.2185    -4.8825 C.2     
  22 S22           -6.7407    -3.6763    -5.3424 S.3     
  23 F23           -1.3010    -5.1803     1.2590 F       
  24 C24           -7.6459    -4.4516    -6.5696 C.2     
  25 C25           -7.3668    -5.7645    -6.5581 C.2     
  26 N26           -6.5006    -6.1538    -5.6600 N.2     
  27 C27           -8.0069    -6.7280    -7.5241 C.3     
  28 C28           -9.3770    -7.2974    -7.1505 C.3     
  29 C29           -9.2593    -6.2570    -8.2661 C.3     
  30 H30            0.9884     1.8356     0.0393 H       
  31 H31           -0.5581     1.8208    -0.8420 H       
  32 H32           -0.5478     1.8077     0.9379 H       
  33 H33            1.4071     0.3331    -2.0332 H       
  34 H34           -1.4883    -1.8387    -2.0303 H       
  35 H35           -2.2269    -1.7485     1.0987 H       
  36 H36           -1.1799    -2.9460     1.9036 H       
  37 H37            1.2166    -2.7805     0.0704 H       
  38 H38            0.4311    -4.2908     0.5902 H       
  39 H39            0.6749    -3.9652    -1.1426 H       
  40 H40           -2.6962    -2.7508    -2.2656 H       
  41 H41           -4.6850    -6.4429    -1.4290 H       
  42 H42           -3.2011    -6.8004     0.5018 H       
  43 H43           -4.9098    -3.4710    -3.3019 H       
  44 H44           -8.3321    -3.9630    -7.2455 H       
  45 H45           -7.3195    -7.3818    -8.0609 H       
  46 H46           -9.5911    -8.3257    -7.4418 H       
  47 H47           -9.8153    -6.9751    -6.2060 H       
  48 H48           -9.6203    -5.2503    -8.0555 H       
  49 H49           -9.3961    -6.6008    -9.2914 H       
@<TRIPOS>BOND
   1    1    7 1
   2    1   30 1
   3    1   31 1
   4    1   32 1
   5    2    8 2
   6    2   33 1
   7    3    4 1
   8    3    8 1
   9    3   34 1
  10    4    5 1
  11    4    9 1
  12    4   10 1
  13    5    6 1
  14    5   35 1
  15    5   36 1
  16    6    7 am
  17    6   16 2
  18    6   17 2
  19    7    8 1
  20    9   37 1
  21    9   38 1
  22    9   39 1
  23   10   11 ar
  24   10   15 ar
  25   11   12 ar
  26   11   40 1
  27   12   13 ar
  28   12   18 1
  29   13   14 ar
  30   13   41 1
  31   14   15 ar
  32   14   42 1
  33   15   23 1
  34   18   19 am
  35   18   43 1
  36   19   20 2
  37   19   21 1
  38   21   22 1
  39   21   26 2
  40   22   24 1
  41   24   25 2
  42   24   44 1
  43   25   26 1
  44   25   27 1
  45   27   28 1
  46   27   29 1
  47   27   45 1
  48   28   29 1
  49   28   46 1
  50   28   47 1
  51   29   48 1
  52   29   49 1

#	End of record

