#	Name: ASD01148880
#	Creating user name:	WinNT
#	Creation time:	15. 06. 2019 19:03

#	Modifying user name:	WinNT
#	Modification time:	15. 06. 2019 19:03

#	Program:	/corina/corina34_cracker 3.40 0067  02.08.2006

@<TRIPOS>MOLECULE
ASD01148880
  25   25    0    0    0
SMALL
NO_CHARGES


@<TRIPOS>ATOM
   1 C1            -0.0184     1.5028     0.0103 C.2     
   2 C2             0.0021    -0.0041     0.0020 C.3     
   3 C3             1.4513    -0.4944    -0.0145 C.3     
   4 C4             1.4717    -2.0012    -0.0227 C.2     
   5 C5             2.7869    -2.7369    -0.0392 C.3     
   6 O6             1.0234     2.1233     0.0037 O.2     
   7 O7             0.4342    -2.6192    -0.0162 O.2     
   8 C8            -1.3020     2.2208     0.0203 C.ar    
   9 C9            -1.3249     3.6196     0.0280 C.ar    
  10 C10           -2.5313     4.2857     0.0369 C.ar    
  11 C11           -3.7198     3.5733     0.0386 C.ar    
  12 C12           -3.7049     2.1877     0.0315 C.ar    
  13 C13           -2.5060     1.5083     0.0163 C.ar    
  14 Cl14          -5.2349     4.4208     0.0504 Cl      
  15 H15           -0.4983    -0.3791     0.8948 H       
  16 H16           -0.5153    -0.3696    -0.8850 H       
  17 H17            1.9516    -0.1193    -0.9073 H       
  18 H18            1.9686    -0.1289     0.8726 H       
  19 H19            3.3633    -2.4706     0.8467 H       
  20 H20            2.6023    -3.8111    -0.0433 H       
  21 H21            3.3463    -2.4610    -0.9331 H       
  22 H22           -0.3993     4.1761     0.0274 H       
  23 H23           -2.5505     5.3655     0.0428 H       
  24 H24           -4.6351     1.6389     0.0332 H       
  25 H25           -2.4958     0.4284     0.0062 H       
@<TRIPOS>BOND
   1    1    2 1
   2    1    6 2
   3    1    8 1
   4    2    3 1
   5    2   15 1
   6    2   16 1
   7    3    4 1
   8    3   17 1
   9    3   18 1
  10    4    5 1
  11    4    7 2
  12    5   19 1
  13    5   20 1
  14    5   21 1
  15    8    9 ar
  16    8   13 ar
  17    9   10 ar
  18    9   22 1
  19   10   11 ar
  20   10   23 1
  21   11   12 ar
  22   11   14 1
  23   12   13 ar
  24   12   24 1
  25   13   25 1

#	End of record

