#	Name: ASD00069067
#	Creating user name:	WinNT
#	Creation time:	15. 06. 2019 18:29

#	Modifying user name:	WinNT
#	Modification time:	15. 06. 2019 18:29

#	Program:	/corina/corina34_cracker 3.40 0067  02.08.2006

@<TRIPOS>MOLECULE
ASD00069067
  27   27    0    0    0
SMALL
NO_CHARGES


@<TRIPOS>ATOM
   1 C1            -0.0187     1.5258     0.0104 C.3     
   2 C2             0.0021    -0.0041     0.0020 C.3     
   3 C3             1.4167     2.0553    -0.0004 C.3     
   4 C4            -0.7587     2.0326    -1.2291 C.3     
   5 N5            -2.1681     1.6244    -1.1590 N.3     
   6 C6            -2.9614     2.2881    -2.2038 C.3     
   7 C7            -2.7295     1.8955     0.1724 C.3     
   8 C8            -4.1778     1.4016     0.2198 C.3     
   9 O9            -4.9261     2.0338    -0.8222 O.3     
  10 C10           -4.4074     1.7903    -2.1326 C.3     
  11 H11           -0.5289     1.8773     0.9072 H       
  12 H12            0.5123    -0.3556    -0.8948 H       
  13 H13            0.5293    -0.3651     0.8851 H       
  14 H14           -1.0205    -0.3814     0.0098 H       
  15 H15            1.9269     1.7038    -0.8972 H       
  16 H16            1.4019     3.1452     0.0056 H       
  17 H17            1.9439     1.6943     0.8826 H       
  18 H18           -0.6969     3.1201    -1.2698 H       
  19 H19           -0.3018     1.6091    -2.1235 H       
  20 H20           -2.9396     3.3666    -2.0474 H       
  21 H21           -2.5433     2.0530    -3.1826 H       
  22 H22           -2.1422     1.3739     0.9281 H       
  23 H23           -2.7040     2.9677     0.3668 H       
  24 H24           -4.1987     0.3210     0.0788 H       
  25 H25           -4.6163     1.6518     1.1859 H       
  26 H26           -5.0118     2.3215    -2.8678 H       
  27 H27           -4.4349     0.7209    -2.3420 H       
@<TRIPOS>BOND
   1    1    2 1
   2    1    3 1
   3    1    4 1
   4    1   11 1
   5    2   12 1
   6    2   13 1
   7    2   14 1
   8    3   15 1
   9    3   16 1
  10    3   17 1
  11    4    5 1
  12    4   18 1
  13    4   19 1
  14    5    6 1
  15    5    7 1
  16    6   10 1
  17    6   20 1
  18    6   21 1
  19    7    8 1
  20    7   22 1
  21    7   23 1
  22    8    9 1
  23    8   24 1
  24    8   25 1
  25    9   10 1
  26   10   26 1
  27   10   27 1

#	End of record

