#	Name: ASD01140712
#	Creating user name:	WinNT
#	Creation time:	15. 06. 2019 19:01

#	Modifying user name:	WinNT
#	Modification time:	15. 06. 2019 19:01

#	Program:	/corina/corina34_cracker 3.40 0067  02.08.2006

@<TRIPOS>MOLECULE
ASD01140712
  72   75    0    0    0
SMALL
NO_CHARGES


@<TRIPOS>ATOM
   1 H1             0.1120    -0.1217    -0.1598 H       
   2 C2             0.0877     0.9640    -0.2537 C.3     
   3 C3            -0.6242     1.5870     0.9521 C.3     
   4 C4             0.4384     1.4743     2.0793 C.3     
   5 C5             1.8156     1.3950     1.3746 C.3     
   6 H6             2.2830     0.4292     1.5665 H       
   7 C7             2.7103     2.5107     1.8499 C.2     
   8 C8             4.2079     2.3545     1.7867 C.3     
   9 O9             2.2272     3.5299     2.2814 O.2     
  10 C10            1.5173     1.5516    -0.1132 C.3     
  11 C11            1.5083     3.0351    -0.4876 C.3     
  12 C12            2.4113     0.7805    -1.0657 C.3     
  13 C13            1.9241     1.0858    -2.4907 C.3     
  14 C14            0.4548     0.7177    -2.6771 C.3     
  15 H15            0.3557    -0.3629    -2.5742 H       
  16 C16           -0.4318     1.3627    -1.6234 C.3     
  17 H17           -0.4006     2.4463    -1.7378 H       
  18 C18           -1.8583     0.8317    -1.8037 C.3     
  19 C19           -2.3021     1.0767    -3.2162 C.2     
  20 C20           -1.4725     1.1760    -4.2132 C.2     
  21 C21           -2.0423     1.4140    -5.6015 C.3     
  22 C22           -1.4507     0.3697    -6.5528 C.3     
  23 H23           -1.7870    -0.6238    -6.2563 H       
  24 C24            0.0764     0.4310    -6.4901 C.3     
  25 C25            0.5500     0.0489    -5.0864 C.3     
  26 C26            0.0002     1.1089    -4.0733 C.3     
  27 C27            0.6086     2.4719    -4.4090 C.3     
  28 O28           -1.8912     0.6453    -7.9086 O.3     
  29 C29           -3.0333     0.0643    -8.3083 C.2     
  30 O30           -3.6448    -0.6508    -7.5503 O.2     
  31 C31           -3.5529     0.3040    -9.7024 C.3     
  32 C32           -4.8589    -0.4683    -9.8997 C.3     
  33 C33           -5.3865    -0.2249   -11.3151 C.3     
  34 C34           -6.6924    -0.9972   -11.5124 C.3     
  35 C35           -7.2121    -0.7575   -12.9065 C.2     
  36 O36           -8.3542    -1.3385   -13.3062 O.3     
  37 O37           -6.6006    -0.0424   -13.6645 O.2     
  38 H38           -0.8708     2.6308     0.7575 H       
  39 H39           -1.5190     1.0193     1.2074 H       
  40 H40            0.3969     2.3538     2.7219 H       
  41 H41            0.2663     0.5726     2.6670 H       
  42 H42            4.5709     2.7183     0.8255 H       
  43 H43            4.6675     2.9301     2.5901 H       
  44 H44            4.4685     1.3020     1.8988 H       
  45 H45            0.8384     3.5747     0.1819 H       
  46 H46            2.5165     3.4391    -0.3959 H       
  47 H47            1.1635     3.1483    -1.5154 H       
  48 H48            3.4454     1.1049    -0.9492 H       
  49 H49            2.3316    -0.2882    -0.8668 H       
  50 H50            2.0518     2.1498    -2.6895 H       
  51 H51            2.5254     0.5183    -3.2010 H       
  52 H52           -1.8773    -0.2383    -1.5965 H       
  53 H53           -2.5286     1.3482    -1.1167 H       
  54 H54           -3.3593     1.1748    -3.4142 H       
  55 H55           -3.1274     1.3134    -5.5751 H       
  56 H56           -1.7741     2.4141    -5.9419 H       
  57 H57            0.4974    -0.2640    -7.2167 H       
  58 H58            0.4087     1.4428    -6.7222 H       
  59 H59            0.1762    -0.9435    -4.8342 H       
  60 H60            1.6396     0.0450    -5.0588 H       
  61 H61            1.6959     2.4029    -4.3745 H       
  62 H62            0.2953     2.7734    -5.4085 H       
  63 H63            0.2682     3.2105    -3.6833 H       
  64 H64           -3.7358     1.3692    -9.8439 H       
  65 H65           -2.8155    -0.0377   -10.4288 H       
  66 H66           -4.6760    -1.5335    -9.7583 H       
  67 H67           -5.5963    -0.1266    -9.1734 H       
  68 H68           -5.5693     0.8403   -11.4566 H       
  69 H69           -4.6490    -0.5666   -12.0415 H       
  70 H70           -6.5096    -2.0624   -11.3710 H       
  71 H71           -7.4299    -0.6556   -10.7861 H       
  72 H72           -8.6475    -1.1550   -14.2092 H       
@<TRIPOS>BOND
   1    1    2 1
   2    2   10 1
   3    2   16 1
   4    2    3 1
   5    3    4 1
   6    3   38 1
   7    3   39 1
   8    4    5 1
   9    4   40 1
  10    4   41 1
  11    5    6 1
  12    5    7 1
  13    5   10 1
  14    7    8 1
  15    7    9 2
  16    8   42 1
  17    8   43 1
  18    8   44 1
  19   10   11 1
  20   10   12 1
  21   11   45 1
  22   11   46 1
  23   11   47 1
  24   12   13 1
  25   12   48 1
  26   12   49 1
  27   13   14 1
  28   13   50 1
  29   13   51 1
  30   14   26 1
  31   14   15 1
  32   14   16 1
  33   16   17 1
  34   16   18 1
  35   18   19 1
  36   18   52 1
  37   18   53 1
  38   19   20 2
  39   19   54 1
  40   20   26 1
  41   20   21 1
  42   21   22 1
  43   21   55 1
  44   21   56 1
  45   22   23 1
  46   22   24 1
  47   22   28 1
  48   24   25 1
  49   24   57 1
  50   24   58 1
  51   25   26 1
  52   25   59 1
  53   25   60 1
  54   26   27 1
  55   27   61 1
  56   27   62 1
  57   27   63 1
  58   28   29 1
  59   29   30 2
  60   29   31 1
  61   31   32 1
  62   31   64 1
  63   31   65 1
  64   32   33 1
  65   32   66 1
  66   32   67 1
  67   33   34 1
  68   33   68 1
  69   33   69 1
  70   34   35 1
  71   34   70 1
  72   34   71 1
  73   35   36 1
  74   35   37 2
  75   36   72 1

#	End of record

