#	Name: ASD03950100
#	Creating user name:	WinNT
#	Creation time:	15. 06. 2019 20:48

#	Modifying user name:	WinNT
#	Modification time:	15. 06. 2019 20:48

#	Program:	/corina/corina34_cracker 3.40 0067  02.08.2006

@<TRIPOS>MOLECULE
ASD03950100
  50   53    0    0    0
SMALL
NO_CHARGES


@<TRIPOS>ATOM
   1 N1            -0.0169     1.3942     0.0097 N.pl3   
   2 N2             0.0021    -0.0041     0.0020 N.2     
   3 C3             1.2313    -0.4339    -0.0120 C.2     
   4 C4             2.1096     0.7333    -0.0141 C.ar    
   5 C5             3.4976     0.8985    -0.0264 C.ar    
   6 C6             4.0425     2.1745    -0.0248 C.ar    
   7 C7             3.2128     3.2974    -0.0109 C.ar    
   8 C8             1.8313     3.1500     0.0019 C.ar    
   9 C9             1.2673     1.8604    -0.0001 C.ar    
  10 C10            0.9849     4.3051     0.0162 C.1     
  11 N11            0.3135     5.2214     0.0275 N.1     
  12 C12            5.5166     2.3468    -0.0374 C.ar    
  13 C13            6.0705     3.6253    -0.0359 C.ar    
  14 C14            7.4415     3.7810    -0.0477 C.ar    
  15 C15            8.2669     2.6684    -0.0611 C.ar    
  16 C16            7.7203     1.3954    -0.0627 C.ar    
  17 C17            6.3504     1.2306    -0.0451 C.ar    
  18 F18            9.6087     2.8253    -0.0731 F       
  19 N19            1.2108    -4.6671    -0.0344 N.am    
  20 C20            1.6137    -4.0360     1.2298 C.3     
  21 C21            1.1381    -2.5798     1.2275 C.3     
  22 C22            1.6689    -1.8759    -0.0235 C.3     
  23 C23            1.1164    -2.5665    -1.2725 C.3     
  24 C24            1.5918    -4.0225    -1.2986 C.3     
  25 S25            0.3496    -6.0815    -0.0344 S.o2    
  26 O26            0.6710    -6.6874    -1.2790 O.2     
  27 O27            0.6976    -6.7037     1.1948 O.2     
  28 C28           -1.3860    -5.5547    -0.0123 C.3     
  29 C29           -2.2930    -6.7869    -0.0106 C.3     
  30 H30           -0.8150     1.9455     0.0167 H       
  31 H31            4.1450     0.0341    -0.0369 H       
  32 H32            3.6474     4.2861    -0.0098 H       
  33 H33            5.4278     4.4932    -0.0258 H       
  34 H34            7.8717     4.7717    -0.0468 H       
  35 H35            8.3673     0.5307    -0.0732 H       
  36 H36            5.9252     0.2379    -0.0419 H       
  37 H37            1.1582    -4.5678     2.0651 H       
  38 H38            2.6993    -4.0657     1.3233 H       
  39 H39            0.0484    -2.5530     1.2253 H       
  40 H40            1.5132    -2.0731     2.1168 H       
  41 H41            2.7577    -1.9249    -0.0333 H       
  42 H42            0.0269    -2.5398    -1.2511 H       
  43 H43            1.4760    -2.0504    -2.1627 H       
  44 H44            2.6756    -4.0511    -1.4112 H       
  45 H45            1.1218    -4.5455    -2.1315 H       
  46 H46           -1.5749    -4.9634     0.8837 H       
  47 H47           -1.5940    -4.9516    -0.8961 H       
  48 H48           -2.0851    -7.3900     0.8732 H       
  49 H49           -3.3360    -6.4703     0.0027 H       
  50 H50           -2.1042    -7.3782    -0.9066 H       
@<TRIPOS>BOND
   1    1    2 1
   2    1    9 1
   3    1   30 1
   4    2    3 2
   5    3    4 1
   6    3   22 1
   7    4    5 ar
   8    4    9 ar
   9    5    6 ar
  10    5   31 1
  11    6    7 ar
  12    6   12 1
  13    7    8 ar
  14    7   32 1
  15    8    9 ar
  16    8   10 1
  17   10   11 3
  18   12   13 ar
  19   12   17 ar
  20   13   14 ar
  21   13   33 1
  22   14   15 ar
  23   14   34 1
  24   15   16 ar
  25   15   18 1
  26   16   17 ar
  27   16   35 1
  28   17   36 1
  29   19   20 1
  30   19   24 1
  31   19   25 am
  32   20   21 1
  33   20   37 1
  34   20   38 1
  35   21   22 1
  36   21   39 1
  37   21   40 1
  38   22   23 1
  39   22   41 1
  40   23   24 1
  41   23   42 1
  42   23   43 1
  43   24   44 1
  44   24   45 1
  45   25   26 2
  46   25   27 2
  47   25   28 1
  48   28   29 1
  49   28   46 1
  50   28   47 1
  51   29   48 1
  52   29   49 1
  53   29   50 1

#	End of record

