#	Name: ASD05940058
#	Creating user name:	WinNT
#	Creation time:	15. 06. 2019 21:04

#	Modifying user name:	WinNT
#	Modification time:	15. 06. 2019 21:04

#	Program:	/corina/corina34_cracker 3.40 0067  02.08.2006

@<TRIPOS>MOLECULE
ASD05940058
  50   52    0    0    0
SMALL
NO_CHARGES


@<TRIPOS>ATOM
   1 N1            -0.0159     1.3182     0.0093 N.ar    
   2 C2             0.0021    -0.0041     0.0020 C.ar    
   3 N3             1.1319    -0.6930    -0.0105 N.ar    
   4 C4             2.3066    -0.0681    -0.0163 C.ar    
   5 C5             2.3274     1.3257    -0.0126 C.ar    
   6 C6             1.1197     2.0168     0.0022 C.ar    
   7 N7             3.5574     2.0049    -0.0281 N.am    
   8 N8             1.0977     3.4049     0.0098 N.pl3   
   9 O9            -1.1750    -0.6756     0.0081 O.3     
  10 C10           -2.3694     0.1089     0.0221 C.3     
  11 C11           -3.4874    -0.6514    -0.6941 C.3     
  12 C12           -3.1276    -0.8144    -2.1722 C.3     
  13 C13           -4.2456    -1.5747    -2.8884 C.3     
  14 N14            3.4912    -0.7844    -0.0204 N.3     
  15 C15            4.5325    -0.1235    -0.8134 C.3     
  16 C16            4.6626     1.3204    -0.4025 C.2     
  17 O17            5.7474     1.8633    -0.4070 O.2     
  18 C18            3.2721    -2.1615    -0.4823 C.3     
  19 C19            4.6021    -2.8332    -0.7082 C.ar    
  20 C20            5.2202    -3.5243     0.3169 C.ar    
  21 C21           -2.7838     0.3811     1.4695 C.3     
  22 C22            5.2184    -2.7706    -1.9484 C.ar    
  23 C23            6.4416    -3.4034    -2.1102 C.ar    
  24 C24            7.0017    -4.0707    -1.0376 C.ar    
  25 N25            6.3839    -4.1144     0.1268 N.ar    
  26 C26            8.3304    -4.7624    -1.2022 C.3     
  27 H27            3.6127     2.9401     0.2234 H       
  28 H28            1.9299     3.9032     0.0049 H       
  29 H29            0.2501     3.8765     0.0201 H       
  30 H30           -2.1887     1.0550    -0.4881 H       
  31 H31           -3.6077    -1.6344    -0.2389 H       
  32 H32           -4.4199    -0.0938    -0.6065 H       
  33 H33           -3.0072     0.1686    -2.6274 H       
  34 H34           -2.1951    -1.3720    -2.2598 H       
  35 H35           -3.9892    -1.6909    -3.9414 H       
  36 H36           -4.3659    -2.5578    -2.4332 H       
  37 H37           -5.1781    -1.0171    -2.8008 H       
  38 H38            5.4839    -0.6312    -0.6548 H       
  39 H39            4.2696    -0.1760    -1.8699 H       
  40 H40            2.7102    -2.7126     0.2718 H       
  41 H41            2.7095    -2.1464    -1.4158 H       
  42 H42            4.7447    -3.5812     1.2850 H       
  43 H43           -1.9873     0.9228     1.9798 H       
  44 H44           -3.6948     0.9795     1.4803 H       
  45 H45           -2.9645    -0.5650     1.9798 H       
  46 H46            4.7566    -2.2418    -2.7691 H       
  47 H47            6.9500    -3.3754    -3.0627 H       
  48 H48            9.1343    -4.0677    -0.9585 H       
  49 H49            8.3778    -5.6219    -0.5336 H       
  50 H50            8.4402    -5.0977    -2.2335 H       
@<TRIPOS>BOND
   1    1    2 ar
   2    1    6 ar
   3    2    3 ar
   4    2    9 1
   5    3    4 ar
   6    4    5 ar
   7    4   14 1
   8    5    6 ar
   9    5    7 1
  10    6    8 1
  11    7   16 am
  12    7   27 1
  13    8   28 1
  14    8   29 1
  15    9   10 1
  16   10   11 1
  17   10   21 1
  18   10   30 1
  19   11   12 1
  20   11   31 1
  21   11   32 1
  22   12   13 1
  23   12   33 1
  24   12   34 1
  25   13   35 1
  26   13   36 1
  27   13   37 1
  28   14   15 1
  29   14   18 1
  30   15   16 1
  31   15   38 1
  32   15   39 1
  33   16   17 2
  34   18   19 1
  35   18   40 1
  36   18   41 1
  37   19   20 ar
  38   19   22 ar
  39   20   25 ar
  40   20   42 1
  41   21   43 1
  42   21   44 1
  43   21   45 1
  44   22   23 ar
  45   22   46 1
  46   23   24 ar
  47   23   47 1
  48   24   25 ar
  49   24   26 1
  50   26   48 1
  51   26   49 1
  52   26   50 1

#	End of record

