#	Name: ASD01882634
#	Creating user name:	WinNT
#	Creation time:	15. 06. 2019 19:44

#	Modifying user name:	WinNT
#	Modification time:	15. 06. 2019 19:44

#	Program:	/corina/corina34_cracker 3.40 0067  02.08.2006

@<TRIPOS>MOLECULE
ASD01882634
  49   52    0    0    0
SMALL
NO_CHARGES


@<TRIPOS>ATOM
   1 C1             0.2047     1.0609    -0.6697 C.2     
   2 N2             0.4131    -0.2050    -1.0054 N.2     
   3 C3             1.6449    -0.7242    -1.0373 C.2     
   4 C4             2.7574     0.0901    -0.7064 C.2     
   5 C5             2.5327     1.3765    -0.3664 C.2     
   6 N6             1.2530     1.8562    -0.3500 N.pl3   
   7 O7            -0.9787     1.7092    -0.6029 O.3     
   8 C8             0.7553     3.2021    -0.0185 C.3     
   9 C9            -0.7688     3.0878    -0.1947 C.3     
  10 O10            1.8107    -1.8935    -1.3494 O.2     
  11 C11           -1.2516     4.0480    -1.2837 C.3     
  12 O12           -2.6711     3.9466    -1.4130 O.3     
  13 C13           -3.2639     4.7392    -2.3443 C.ar    
  14 C14           -4.6391     4.6920    -2.5232 C.ar    
  15 C15           -5.2392     5.4985    -3.4703 C.ar    
  16 C16           -4.4707     6.3523    -4.2403 C.ar    
  17 C17           -3.1003     6.4008    -4.0643 C.ar    
  18 C18           -2.4960     5.6009    -3.1136 C.ar    
  19 C19           -6.7327     5.4477    -3.6652 C.3     
  20 C20           -5.1280     7.2308    -5.2733 C.3     
  21 C21           -4.7335     8.6886    -5.0285 C.3     
  22 C22           -5.4009     9.5806    -6.0773 C.3     
  23 C23           -4.9428     9.1559    -7.4740 C.3     
  24 C24           -5.3373     7.6981    -7.7188 C.3     
  25 C25           -4.6699     6.8061    -6.6700 C.3     
  26 H26            3.7605    -0.3097    -0.7256 H       
  27 H27            3.3587     2.0228    -0.1087 H       
  28 H28            1.0049     3.4592     1.0109 H       
  29 H29            1.1635     3.9412    -0.7080 H       
  30 H30           -1.2804     3.2889     0.7466 H       
  31 H31           -0.9834     5.0691    -1.0126 H       
  32 H32           -0.7808     3.7882    -2.2318 H       
  33 H33           -5.2396     4.0249    -1.9226 H       
  34 H34           -2.5022     7.0682    -4.6671 H       
  35 H35           -1.4260     5.6427    -2.9731 H       
  36 H36           -7.2027     6.2368    -3.0782 H       
  37 H37           -6.9665     5.5912    -4.7201 H       
  38 H38           -7.1090     4.4785    -3.3381 H       
  39 H39           -6.2109     7.1302    -5.1999 H       
  40 H40           -5.0599     8.9912    -4.0335 H       
  41 H41           -3.6506     8.7893    -5.1019 H       
  42 H42           -6.4837     9.4800    -6.0039 H       
  43 H43           -5.1198    10.6192    -5.9029 H       
  44 H44           -5.4182     9.7913    -8.2211 H       
  45 H45           -3.8599     9.2565    -7.5474 H       
  46 H46           -6.4201     7.5974    -7.6453 H       
  47 H47           -5.0109     7.3955    -8.7138 H       
  48 H48           -3.5870     6.9067    -6.7434 H       
  49 H49           -4.9509     5.7675    -6.8444 H       
@<TRIPOS>BOND
   1    1    2 2
   2    1    6 1
   3    1    7 1
   4    2    3 1
   5    3    4 1
   6    3   10 2
   7    4    5 2
   8    4   26 1
   9    5    6 1
  10    5   27 1
  11    6    8 1
  12    7    9 1
  13    8    9 1
  14    8   28 1
  15    8   29 1
  16    9   11 1
  17    9   30 1
  18   11   12 1
  19   11   31 1
  20   11   32 1
  21   12   13 1
  22   13   14 ar
  23   13   18 ar
  24   14   15 ar
  25   14   33 1
  26   15   16 ar
  27   15   19 1
  28   16   17 ar
  29   16   20 1
  30   17   18 ar
  31   17   34 1
  32   18   35 1
  33   19   36 1
  34   19   37 1
  35   19   38 1
  36   20   21 1
  37   20   25 1
  38   20   39 1
  39   21   22 1
  40   21   40 1
  41   21   41 1
  42   22   23 1
  43   22   42 1
  44   22   43 1
  45   23   24 1
  46   23   44 1
  47   23   45 1
  48   24   25 1
  49   24   46 1
  50   24   47 1
  51   25   48 1
  52   25   49 1

#	End of record

