#	Name: ASD01510022
#	Creating user name:	WinNT
#	Creation time:	15. 06. 2019 19:21

#	Modifying user name:	WinNT
#	Modification time:	15. 06. 2019 19:21

#	Program:	/corina/corina34_cracker 3.40 0067  02.08.2006

@<TRIPOS>MOLECULE
ASD01510022
  50   52    0    0    0
SMALL
NO_CHARGES


@<TRIPOS>ATOM
   1 C1             2.3573    -2.6597    -0.0434 C.2     
   2 C2             1.1965    -2.0100    -0.0263 C.2     
   3 C3            -0.0669    -2.7623    -0.0147 C.2     
   4 O4            -0.0507    -3.9783    -0.0209 O.2     
   5 N5            -1.2430    -2.1042     0.0026 N.am    
   6 C6            -2.4362    -2.8105    -0.0947 C.ar    
   7 N7            -2.4263    -4.1245    -0.3021 N.ar    
   8 C8            -3.5595    -4.8054    -0.3962 C.ar    
   9 N9            -4.7396    -4.2121    -0.2886 N.ar    
  10 C10           -4.8261    -2.9007    -0.0807 C.ar    
  11 C11           -3.6561    -2.1534     0.0293 C.ar    
  12 N12           -6.0641    -2.2874     0.0307 N.pl3   
  13 S13           -3.4952    -6.5445    -0.6719 S.3     
  14 C14           -5.2180    -6.9122    -0.7093 C.ar    
  15 C15           -5.9310    -6.8743    -1.9075 C.ar    
  16 O16           -5.3080    -6.5530    -3.0686 O.3     
  17 C17           -6.1091    -6.5366    -4.2518 C.3     
  18 N18           -7.2292    -7.1577    -1.8957 N.ar    
  19 C19           -7.8451    -7.4727    -0.7665 C.ar    
  20 N20           -7.2018    -7.5191     0.3901 N.ar    
  21 C21           -5.9014    -7.2539     0.4575 C.ar    
  22 O22           -5.2503    -7.3037     1.6463 O.3     
  23 C23           -6.0247    -7.6496     2.7963 C.3     
  24 N24           -9.2006    -7.7615    -0.7958 N.3     
  25 C25           -9.6995    -8.0858     0.5485 C.3     
  26 C26          -11.2078    -8.3389     0.4799 C.3     
  27 O27          -11.4685    -9.3839    -0.4610 O.3     
  28 C28          -10.9964    -9.1011    -1.7810 C.3     
  29 C29           -9.4859    -8.8557    -1.7353 C.3     
  30 H30            3.2852    -2.1071    -0.0519 H       
  31 H31            2.3718    -3.7396    -0.0444 H       
  32 H32            1.1820    -0.9302    -0.0208 H       
  33 H33           -1.2567    -1.1376     0.0830 H       
  34 H34           -3.6949    -1.0873     0.1981 H       
  35 H35           -6.8749    -2.8148    -0.0430 H       
  36 H36           -6.1197    -1.3310     0.1822 H       
  37 H37           -6.5384    -7.5254    -4.4137 H       
  38 H38           -6.9105    -5.8067    -4.1379 H       
  39 H39           -5.4893    -6.2653    -5.1065 H       
  40 H40           -6.8229    -6.9194     2.9299 H       
  41 H41           -6.4579    -8.6402     2.6580 H       
  42 H42           -5.3841    -7.6531     3.6781 H       
  43 H43           -9.1968    -8.9799     0.9174 H       
  44 H44           -9.5006    -7.2518     1.2215 H       
  45 H45          -11.5722    -8.6355     1.4635 H       
  46 H46          -11.7156    -7.4282     0.1623 H       
  47 H47          -11.2079    -9.9489    -2.4326 H       
  48 H48          -11.4981    -8.2126    -2.1643 H       
  49 H49           -9.1312    -8.5837    -2.7294 H       
  50 H50           -8.9799    -9.7621    -1.4030 H       
@<TRIPOS>BOND
   1    1    2 2
   2    1   30 1
   3    1   31 1
   4    2    3 1
   5    2   32 1
   6    3    4 2
   7    3    5 am
   8    5    6 1
   9    5   33 1
  10    6    7 ar
  11    6   11 ar
  12    7    8 ar
  13    8    9 ar
  14    8   13 1
  15    9   10 ar
  16   10   11 ar
  17   10   12 1
  18   11   34 1
  19   12   35 1
  20   12   36 1
  21   13   14 1
  22   14   15 ar
  23   14   21 ar
  24   15   16 1
  25   15   18 ar
  26   16   17 1
  27   17   37 1
  28   17   38 1
  29   17   39 1
  30   18   19 ar
  31   19   20 ar
  32   19   24 1
  33   20   21 ar
  34   21   22 1
  35   22   23 1
  36   23   40 1
  37   23   41 1
  38   23   42 1
  39   24   25 1
  40   24   29 1
  41   25   26 1
  42   25   43 1
  43   25   44 1
  44   26   27 1
  45   26   45 1
  46   26   46 1
  47   27   28 1
  48   28   29 1
  49   28   47 1
  50   28   48 1
  51   29   49 1
  52   29   50 1

#	End of record

