#	Name: ASD01914354
#	Creating user name:	WinNT
#	Creation time:	15. 06. 2019 20:03

#	Modifying user name:	WinNT
#	Modification time:	15. 06. 2019 20:03

#	Program:	/corina/corina34_cracker 3.40 0067  02.08.2006

@<TRIPOS>MOLECULE
ASD01914354
  35   37    0    0    0
SMALL
NO_CHARGES


@<TRIPOS>ATOM
   1 C1            -0.0163     1.3509     0.0095 C.2     
   2 N2             0.0021    -0.0041     0.0020 N.pl3   
   3 C3            -1.2083    -0.8318     0.0046 C.3     
   4 C4            -2.3955     0.0529    -0.3966 C.3     
   5 N5            -2.3949     1.2803     0.4119 N.3     
   6 C6            -1.2835     2.1687     0.0315 C.3     
   7 C7             1.2585     1.7812    -0.0004 C.2     
   8 C8             2.0908     0.6539    -0.0121 C.2     
   9 N9             1.3335    -0.4164    -0.0098 N.2     
  10 C10            3.5977     0.6692    -0.0256 C.3     
  11 O11            4.0604     2.0212    -0.0247 O.3     
  12 C12            5.4057     2.2130    -0.0361 C.ar    
  13 C13            5.9242     3.4997    -0.0359 C.ar    
  14 C14            7.2922     3.6920    -0.0470 C.ar    
  15 C15            8.1444     2.6032    -0.0582 C.ar    
  16 C16            6.2630     1.1222    -0.0421 C.ar    
  17 C17            7.6301     1.3198    -0.0589 C.ar    
  18 C18           -1.1545     3.3012     1.0522 C.3     
  19 F19           -0.9036     2.7616     2.3183 F       
  20 F20           -0.0976     4.1413     0.6855 F       
  21 F21           -2.3443     4.0363     1.0859 F       
  22 H22           -1.0983    -1.6462    -0.7115 H       
  23 H23           -1.3735    -1.2385     1.0022 H       
  24 H24           -2.3131     0.3137    -1.4517 H       
  25 H25           -3.3254    -0.4907    -0.2297 H       
  26 H26           -3.2805     1.7589     0.3434 H       
  27 H27           -1.4667     2.5843    -0.9593 H       
  28 H28            1.5824     2.8114     0.0003 H       
  29 H29            3.9742     0.1557     0.8591 H       
  30 H30            3.9582     0.1625    -0.9208 H       
  31 H31            5.2590     4.3505    -0.0274 H       
  32 H32            7.6963     4.6935    -0.0472 H       
  33 H33            9.2135     2.7556    -0.0669 H       
  34 H34            5.8618     0.1195    -0.0377 H       
  35 H35            8.2979     0.4710    -0.0681 H       
@<TRIPOS>BOND
   1    1    2 1
   2    1    7 2
   3    1    6 1
   4    2    3 1
   5    2    9 1
   6    3    4 1
   7    3   22 1
   8    3   23 1
   9    4    5 1
  10    4   24 1
  11    4   25 1
  12    5    6 1
  13    5   26 1
  14    6   18 1
  15    6   27 1
  16    7    8 1
  17    7   28 1
  18    8    9 2
  19    8   10 1
  20   10   11 1
  21   10   29 1
  22   10   30 1
  23   11   12 1
  24   12   13 ar
  25   12   16 ar
  26   13   14 ar
  27   13   31 1
  28   14   15 ar
  29   14   32 1
  30   15   17 ar
  31   15   33 1
  32   16   17 ar
  33   16   34 1
  34   17   35 1
  35   18   19 1
  36   18   20 1
  37   18   21 1

#	End of record

