#	Name: ASD01916643
#	Creating user name:	WinNT
#	Creation time:	15. 06. 2019 20:07

#	Modifying user name:	WinNT
#	Modification time:	15. 06. 2019 20:07

#	Program:	/corina/corina34_cracker 3.40 0067  02.08.2006

@<TRIPOS>MOLECULE
ASD01916643
  48   49    0    0    0
SMALL
NO_CHARGES


@<TRIPOS>ATOM
   1 C1            -0.1030     1.3395     0.0186 C.2     
   2 N2             0.0021    -0.0041     0.0020 N.am    
   3 O3             0.8984     2.0268     0.0314 O.2     
   4 O4            -1.3174     1.9197     0.0154 O.3     
   5 C5            -1.1497    -0.7990     0.1007 C.ar    
   6 C6            -1.9060    -0.7850     1.2646 C.ar    
   7 C7            -3.0396    -1.5683     1.3600 C.ar    
   8 C8            -3.4218    -2.3672     0.2955 C.ar    
   9 C9            -2.6685    -2.3824    -0.8663 C.ar    
  10 C10           -1.5375    -1.5961    -0.9674 C.ar    
  11 F11           -4.5307    -3.1331     0.3907 F       
  12 C12            1.2136    -0.5840    -0.1094 C.2     
  13 C13            2.4380     0.2657    -0.3324 C.3     
  14 C14            3.6730    -0.6330    -0.4223 C.3     
  15 C15            4.8690     0.1970    -0.6401 C.1     
  16 C16            5.8229     0.8590    -0.8139 C.1     
  17 O17            1.3183    -1.7892    -0.0302 O.2     
  18 C18            6.9865     1.6664    -1.0257 C.ar    
  19 C19            8.2382     1.0605    -1.1403 C.ar    
  20 C20            9.3527     1.8543    -1.3449 C.ar    
  21 C21            9.1810     3.2292    -1.4285 C.ar    
  22 C22            7.9116     3.7635    -1.3061 C.ar    
  23 N23            6.8652     2.9857    -1.1171 N.ar    
  24 C24           -1.3547     3.3711     0.0340 C.3     
  25 C25           -0.6357     3.9156    -1.2019 C.3     
  26 C26           -2.8097     3.8440     0.0272 C.3     
  27 C27           -0.6579     3.8830     1.2962 C.3     
  28 H28           -1.6081    -0.1623     2.0952 H       
  29 H29           -3.6281    -1.5579     2.2655 H       
  30 H30           -2.9681    -3.0062    -1.6956 H       
  31 H31           -0.9527    -1.6049    -1.8754 H       
  32 H32            2.3276     0.8255    -1.2611 H       
  33 H33            2.5543     0.9608     0.4991 H       
  34 H34            3.7834    -1.1927     0.5064 H       
  35 H35            3.5568    -1.3281    -1.2538 H       
  36 H36            8.3356    -0.0128    -1.0700 H       
  37 H37           10.3345     1.4140    -1.4371 H       
  38 H38           10.0313     3.8758    -1.5873 H       
  39 H39            7.7755     4.8330    -1.3704 H       
  40 H40           -1.1321     3.5509    -2.1012 H       
  41 H41           -0.6636     5.0051    -1.1880 H       
  42 H42            0.4009     3.5786    -1.1971 H       
  43 H43           -3.3220     3.4561     0.9076 H       
  44 H44           -2.8377     4.9336     0.0411 H       
  45 H45           -3.3061     3.4793    -0.8721 H       
  46 H46            0.3787     3.5460     1.3011 H       
  47 H47           -0.6859     4.9725     1.3102 H       
  48 H48           -1.1701     3.4951     2.1767 H       
@<TRIPOS>BOND
   1    1    2 am
   2    1    3 2
   3    1    4 1
   4    2    5 1
   5    2   12 am
   6    4   24 1
   7    5    6 ar
   8    5   10 ar
   9    6    7 ar
  10    6   28 1
  11    7    8 ar
  12    7   29 1
  13    8    9 ar
  14    8   11 1
  15    9   10 ar
  16    9   30 1
  17   10   31 1
  18   12   13 1
  19   12   17 2
  20   13   14 1
  21   13   32 1
  22   13   33 1
  23   14   15 1
  24   14   34 1
  25   14   35 1
  26   15   16 3
  27   16   18 1
  28   18   19 ar
  29   18   23 ar
  30   19   20 ar
  31   19   36 1
  32   20   21 ar
  33   20   37 1
  34   21   22 ar
  35   21   38 1
  36   22   23 ar
  37   22   39 1
  38   24   25 1
  39   24   27 1
  40   24   26 1
  41   25   40 1
  42   25   41 1
  43   25   42 1
  44   26   43 1
  45   26   44 1
  46   26   45 1
  47   27   46 1
  48   27   47 1
  49   27   48 1

#	End of record

