#	Name: ASD03110034
#	Creating user name:	WinNT
#	Creation time:	15. 06. 2019 20:33

#	Modifying user name:	WinNT
#	Modification time:	15. 06. 2019 20:33

#	Program:	/corina/corina34_cracker 3.40 0067  02.08.2006

@<TRIPOS>MOLECULE
ASD03110034
  57   58    0    0    0
SMALL
NO_CHARGES


@<TRIPOS>ATOM
   1 C1            -0.0624     2.0439     0.3448 C.3     
   2 C2            -0.1203     0.5228     0.1737 C.3     
   3 C3             0.5570    -0.1414     1.3763 C.3     
   4 C4            -0.1312     0.3253     2.6617 C.3     
   5 O5            -0.0684     1.7506     2.7436 O.3     
   6 C6            -0.7266     2.4262     1.6700 C.3     
   7 O7            -1.4839     0.1016     0.1002 O.3     
   8 C8            -0.6196     3.9384     1.8768 C.3     
   9 O9            -1.3385     4.3101     3.0546 O.3     
  10 O10            0.4451    -1.5615     1.2633 O.3     
  11 O11           -1.4979    -0.0916     2.6489 O.3     
  12 C12           -2.1446    -0.0029     3.9202 C.3     
  13 C13           -2.0274    -1.3444     4.6466 C.3     
  14 C14           -3.6218     0.3403     3.7181 C.3     
  15 C15           -0.5590    -1.6185     4.9777 C.3     
  16 C16           -0.4549    -2.8937     5.8168 C.3     
  17 C17            1.0135    -3.1678     6.1478 C.3     
  18 C18           -3.7430     1.6839     2.9904 C.3     
  19 O19           -4.2685     0.4500     4.9915 O.3     
  20 C20           -5.5590     0.8486     4.9740 C.2     
  21 C21           -6.0296     1.6790     3.9294 C.2     
  22 C22           -5.1938     2.0963     2.9619 C.2     
  23 O23           -6.3172     0.4930     5.8566 O.2     
  24 O24            1.3010     2.4719     0.3530 O.3     
  25 C25            1.8171     2.7933    -0.9402 C.3     
  26 O26           -5.6521     2.8821     1.9672 O.3     
  27 C27           -7.0592     3.2387     2.0040 C.3     
  28 H28           -0.5898     2.5235    -0.4798 H       
  29 H29            0.4002     0.2386    -0.7409 H       
  30 H30            1.6097     0.1400     1.4028 H       
  31 H31            0.3740    -0.1109     3.5235 H       
  32 H32           -1.7770     2.1357     1.6473 H       
  33 H33           -1.5954    -0.8527    -0.0087 H       
  34 H34            0.4284     4.2166     1.9878 H       
  35 H35           -1.0431     4.4539     1.0148 H       
  36 H36           -1.3137     5.2572     3.2480 H       
  37 H37            0.8533    -2.0476     1.9928 H       
  38 H38           -1.6689     0.7758     4.5163 H       
  39 H39           -2.6075    -1.3100     5.5688 H       
  40 H40           -2.4100    -2.1390     4.0061 H       
  41 H41           -4.1013    -0.4402     3.1274 H       
  42 H42            0.0043    -1.7450     4.0532 H       
  43 H43           -0.1505    -0.7790     5.5402 H       
  44 H44           -1.0183    -2.7672     6.7413 H       
  45 H45           -0.8634    -3.7332     5.2542 H       
  46 H46            1.5769    -3.2943     5.2233 H       
  47 H47            1.4220    -2.3283     6.7103 H       
  48 H48            1.0877    -4.0763     6.7456 H       
  49 H49           -3.1594     2.4385     3.5179 H       
  50 H50           -3.3727     1.5812     1.9704 H       
  51 H51           -7.0668     1.9794     3.9087 H       
  52 H52            1.7597     1.9148    -1.5829 H       
  53 H53            1.2290     3.6012    -1.3756 H       
  54 H54            2.8563     3.1091    -0.8485 H       
  55 H55           -7.6646     2.3331     1.9645 H       
  56 H56           -7.2732     3.7788     2.9263 H       
  57 H57           -7.2961     3.8717     1.1489 H       
@<TRIPOS>BOND
   1    1    2 1
   2    1   24 1
   3    1    6 1
   4    1   28 1
   5    2    3 1
   6    2    7 1
   7    2   29 1
   8    3   10 1
   9    3    4 1
  10    3   30 1
  11    4    5 1
  12    4   11 1
  13    4   31 1
  14    5    6 1
  15    6    8 1
  16    6   32 1
  17    7   33 1
  18    8    9 1
  19    8   34 1
  20    8   35 1
  21    9   36 1
  22   10   37 1
  23   11   12 1
  24   12   13 1
  25   12   14 1
  26   12   38 1
  27   13   15 1
  28   13   39 1
  29   13   40 1
  30   14   18 1
  31   14   19 1
  32   14   41 1
  33   15   16 1
  34   15   42 1
  35   15   43 1
  36   16   17 1
  37   16   44 1
  38   16   45 1
  39   17   46 1
  40   17   47 1
  41   17   48 1
  42   18   22 1
  43   18   49 1
  44   18   50 1
  45   19   20 1
  46   20   21 1
  47   20   23 2
  48   21   22 2
  49   21   51 1
  50   22   26 1
  51   24   25 1
  52   25   52 1
  53   25   53 1
  54   25   54 1
  55   26   27 1
  56   27   55 1
  57   27   56 1
  58   27   57 1

#	End of record

