#	Name: ASD05060084
#	Creating user name:	WinNT
#	Creation time:	15. 06. 2019 20:56

#	Modifying user name:	WinNT
#	Modification time:	15. 06. 2019 20:56

#	Program:	/corina/corina34_cracker 3.40 0067  02.08.2006

@<TRIPOS>MOLECULE
ASD05060084
  19   20    0    0    0
SMALL
NO_CHARGES


@<TRIPOS>ATOM
   1 C1            -0.0170     1.4052     0.0098 C.ar    
   2 C2             0.0021    -0.0041     0.0020 C.ar    
   3 C3             1.2598    -0.6241    -0.0133 C.ar    
   4 C4             2.4250     0.0854    -0.0210 C.ar    
   5 C5             2.3862     1.4791    -0.0135 C.ar    
   6 C6             1.1538     2.1226     0.0024 C.ar    
   7 C7            -1.1328    -0.9357     0.0078 C.2     
   8 C8            -0.9009    -2.2372    -0.0014 C.2     
   9 S9             0.8759    -2.3563    -0.0189 S.o2    
  10 O10            1.2618    -2.8808    -1.2819 O.2     
  11 O11            1.2858    -2.8943     1.2308 O.2     
  12 N12            3.5693     2.2188    -0.0208 N.pl3   
  13 H13           -0.9629     1.9265     0.0171 H       
  14 H14            3.3738    -0.4304    -0.0324 H       
  15 H15            1.1169     3.2020     0.0082 H       
  16 H16           -2.1460    -0.5618     0.0198 H       
  17 H17           -1.6216    -3.0415     0.0017 H       
  18 H18            4.4258     1.7636    -0.0310 H       
  19 H19            3.5353     3.1882    -0.0155 H       
@<TRIPOS>BOND
   1    1    2 ar
   2    1    6 ar
   3    1   13 1
   4    2    3 ar
   5    2    7 1
   6    3    4 ar
   7    3    9 1
   8    4    5 ar
   9    4   14 1
  10    5    6 ar
  11    5   12 1
  12    6   15 1
  13    7    8 2
  14    7   16 1
  15    8    9 1
  16    8   17 1
  17    9   10 2
  18    9   11 2
  19   12   18 1
  20   12   19 1

#	End of record

