#	Name: ASD02198459
#	Creating user name:	WinNT
#	Creation time:	15. 06. 2019 20:19

#	Modifying user name:	WinNT
#	Modification time:	15. 06. 2019 20:19

#	Program:	/corina/corina34_cracker 3.40 0067  02.08.2006

@<TRIPOS>MOLECULE
ASD02198459
  60   64    0    0    0
SMALL
NO_CHARGES


@<TRIPOS>ATOM
   1 C1            -2.1401     2.2958    -0.3247 C.ar    
   2 S2            -0.7277     4.6317    -0.3259 S.o2    
   3 C3            -0.9066     2.8893    -0.5172 C.ar    
   4 N4            -0.3412     4.9136     1.2595 N.am    
   5 O5             0.4116     5.0043    -1.0890 O.2     
   6 O6            -2.0173     5.1923    -0.5304 O.2     
   7 C7            -2.2805     0.9288    -0.4748 C.ar    
   8 C8            -1.1873     0.1553    -0.8175 C.ar    
   9 C9             0.0462     0.7488    -1.0104 C.ar    
  10 C10            0.1867     2.1157    -0.8594 C.ar    
  11 C11           -1.3401    -1.3351    -0.9802 C.3     
  12 C12            0.8273     4.4641     1.7585 C.2     
  13 N13            1.1897     4.7827     3.0169 N.am    
  14 O14            1.5545     3.7712     1.0734 O.2     
  15 C15            2.3593     4.2065     3.5495 C.3     
  16 C16            2.0189     3.4171     4.8417 C.3     
  17 C17            1.6634     4.4049     5.9273 C.3     
  18 N18            0.2181     4.6935     6.0298 N.3     
  19 C19           -0.4651     4.8874     4.7449 C.3     
  20 C20            0.3484     5.7253     3.7785 C.3     
  21 C21           -0.4255     3.7367     6.7941 C.ar    
  22 N22           -0.4331     2.4670     6.4159 N.ar    
  23 C23           -1.0820     4.0988     7.9967 C.ar    
  24 C24           -1.7119     3.0857     8.7202 C.ar    
  25 N25           -1.6696     1.8303     8.2539 N.ar    
  26 C26           -1.0438     1.5436     7.1363 C.ar    
  27 C27           -1.2221     5.3992     8.6402 C.2     
  28 C28           -1.9130     5.3782     9.7787 C.2     
  29 S29           -2.4553     3.7563    10.1645 S.3     
  30 C30           -0.6436     6.6411     8.0750 C.ar    
  31 C31           -1.4639     7.7360     7.8059 C.ar    
  32 C32           -0.9194     8.8898     7.2801 C.ar    
  33 C33            0.4374     8.9615     7.0200 C.ar    
  34 C34            1.2562     7.8783     7.2845 C.ar    
  35 C35            0.7241     6.7212     7.8157 C.ar    
  36 H36           -2.9933     2.8996    -0.0526 H       
  37 H37           -0.9559     5.4023     1.8290 H       
  38 H38           -3.2442     0.4652    -0.3241 H       
  39 H39            0.9004     0.1443    -1.2774 H       
  40 H40            1.1503     2.5794    -1.0105 H       
  41 H41           -1.5961    -1.5633    -2.0148 H       
  42 H42           -0.4025    -1.8269    -0.7209 H       
  43 H43           -2.1321    -1.6931    -0.3225 H       
  44 H44            2.7955     3.5289     2.8156 H       
  45 H45            3.0759     4.9936     3.7843 H       
  46 H46            1.1716     2.7572     4.6552 H       
  47 H47            2.8835     2.8294     5.1502 H       
  48 H48            2.0067     4.0087     6.8830 H       
  49 H49            2.1908     5.3388     5.7330 H       
  50 H50           -0.6548     3.9126     4.2956 H       
  51 H51           -1.4193     5.3829     4.9239 H       
  52 H52            0.9735     6.4283     4.3291 H       
  53 H53           -0.3151     6.2647     3.1026 H       
  54 H54           -1.0318     0.5199     6.7922 H       
  55 H55           -2.1135     6.2484    10.3861 H       
  56 H56           -2.5233     7.6811     8.0082 H       
  57 H57           -1.5538     9.7384     7.0709 H       
  58 H58            0.8591     9.8667     6.6084 H       
  59 H59            2.3147     7.9398     7.0787 H       
  60 H60            1.3643     5.8762     8.0218 H       
@<TRIPOS>BOND
   1    1    7 ar
   2    1    3 ar
   3    1   36 1
   4    2    3 1
   5    2    5 2
   6    2    6 2
   7    2    4 am
   8    3   10 ar
   9    4   12 am
  10    4   37 1
  11    7    8 ar
  12    7   38 1
  13    8    9 ar
  14    8   11 1
  15    9   10 ar
  16    9   39 1
  17   10   40 1
  18   11   41 1
  19   11   42 1
  20   11   43 1
  21   12   13 am
  22   12   14 2
  23   13   15 1
  24   13   20 1
  25   15   16 1
  26   15   44 1
  27   15   45 1
  28   16   17 1
  29   16   46 1
  30   16   47 1
  31   17   18 1
  32   17   48 1
  33   17   49 1
  34   18   19 1
  35   18   21 1
  36   19   20 1
  37   19   50 1
  38   19   51 1
  39   20   52 1
  40   20   53 1
  41   21   22 ar
  42   21   23 ar
  43   22   26 ar
  44   23   24 ar
  45   23   27 1
  46   24   25 ar
  47   24   29 1
  48   25   26 ar
  49   26   54 1
  50   27   28 2
  51   27   30 1
  52   28   29 1
  53   28   55 1
  54   30   31 ar
  55   30   35 ar
  56   31   32 ar
  57   31   56 1
  58   32   33 ar
  59   32   57 1
  60   33   34 ar
  61   33   58 1
  62   34   35 ar
  63   34   59 1
  64   35   60 1

#	End of record

