#	Name: ASD01813042
#	Creating user name:	WinNT
#	Creation time:	15. 06. 2019 19:29

#	Modifying user name:	WinNT
#	Modification time:	15. 06. 2019 19:29

#	Program:	/corina/corina34_cracker 3.40 0067  02.08.2006

@<TRIPOS>MOLECULE
ASD01813042
  50   53    0    0    0
SMALL
NO_CHARGES


@<TRIPOS>ATOM
   1 C1            -1.9067     1.4014     0.0375 C.2     
   2 C2            -2.0105     0.0626     0.0828 C.2     
   3 N3            -0.9003    -0.7284    -0.0086 N.pl3   
   4 C4             0.3411    -0.2442    -0.1332 C.2     
   5 C5             0.5524     1.1197    -0.1788 C.2     
   6 C6            -0.6216     1.9979    -0.0941 C.2     
   7 O7            -0.4972     3.2118    -0.1282 O.2     
   8 C8            -1.0779    -2.1820     0.0326 C.3     
   9 C9            -0.8981    -2.6702     1.4469 C.ar    
  10 C10           -3.0930     2.3253     0.1131 C.3     
  11 C11           -4.3118     1.5968     0.6753 C.3     
  12 C12           -4.4911     0.2908    -0.1086 C.3     
  13 C13           -3.3354    -0.6416     0.2449 C.3     
  14 C14           -2.0039    -2.8622     2.2554 C.ar    
  15 C15           -1.8449    -3.3087     3.5517 C.ar    
  16 C16           -0.5677    -3.5666     4.0453 C.ar    
  17 C17            0.5425    -3.3719     3.2264 C.ar    
  18 C18            0.3717    -2.9300     1.9300 C.ar    
  19 C19           -0.3906    -4.0465     5.4384 C.ar    
  20 C20           -1.5026    -4.2403     6.2567 C.ar    
  21 C21           -1.3409    -4.6869     7.5542 C.ar    
  22 C22           -0.0787    -4.9442     8.0494 C.ar    
  23 C23            1.0437    -4.7539     7.2395 C.ar    
  24 C24            0.8847    -4.3089     5.9278 C.ar    
  25 O25           -2.7744     3.4316     0.9597 O.3     
  26 C26            1.9086     1.6746    -0.3126 C.2     
  27 O27            2.8658     0.9292    -0.3849 O.2     
  28 O28            2.0893     3.0096    -0.3549 O.3     
  29 C29            2.3534    -5.0204     7.7535 C.1     
  30 N30            3.3924    -5.2319     8.1612 N.1     
  31 H31            1.1796    -0.9217    -0.1980 H       
  32 H32           -2.0795    -2.4356    -0.3148 H       
  33 H33           -0.3386    -2.6568    -0.6124 H       
  34 H34           -3.3248     2.6941    -0.8860 H       
  35 H35           -4.1529     1.3738     1.7304 H       
  36 H36           -5.1986     2.2199     0.5598 H       
  37 H37           -5.4371    -0.1759     0.1660 H       
  38 H38           -4.4806     0.4997    -1.1783 H       
  39 H39           -3.3622    -1.5112    -0.4117 H       
  40 H40           -3.4428    -0.9701     1.2787 H       
  41 H41           -2.9934    -2.6620     1.8718 H       
  42 H42           -2.7089    -3.4576     4.1824 H       
  43 H43            1.5348    -3.5699     3.6041 H       
  44 H44            1.2316    -2.7788     1.2943 H       
  45 H45           -2.4931    -4.0405     5.8755 H       
  46 H46           -2.2060    -4.8350     8.1836 H       
  47 H47            0.0415    -5.2928     9.0645 H       
  48 H48            1.7487    -4.1603     5.2971 H       
  49 H49           -3.4926     4.0718     1.0572 H       
  50 H50            2.9985     3.3269    -0.4434 H       
@<TRIPOS>BOND
   1    1    2 2
   2    1   10 1
   3    1    6 1
   4    2    3 1
   5    2   13 1
   6    3    4 1
   7    3    8 1
   8    4    5 2
   9    4   31 1
  10    5    6 1
  11    5   26 1
  12    6    7 2
  13    8    9 1
  14    8   32 1
  15    8   33 1
  16    9   14 ar
  17    9   18 ar
  18   10   11 1
  19   10   25 1
  20   10   34 1
  21   11   12 1
  22   11   35 1
  23   11   36 1
  24   12   13 1
  25   12   37 1
  26   12   38 1
  27   13   39 1
  28   13   40 1
  29   14   15 ar
  30   14   41 1
  31   15   16 ar
  32   15   42 1
  33   16   17 ar
  34   16   19 1
  35   17   18 ar
  36   17   43 1
  37   18   44 1
  38   19   20 ar
  39   19   24 ar
  40   20   21 ar
  41   20   45 1
  42   21   22 ar
  43   21   46 1
  44   22   23 ar
  45   22   47 1
  46   23   24 ar
  47   23   29 1
  48   24   48 1
  49   25   49 1
  50   26   27 2
  51   26   28 1
  52   28   50 1
  53   29   30 3

#	End of record

