#	Name: ASD04840055
#	Creating user name:	WinNT
#	Creation time:	15. 06. 2019 20:52

#	Modifying user name:	WinNT
#	Modification time:	15. 06. 2019 20:52

#	Program:	/corina/corina34_cracker 3.40 0067  02.08.2006

@<TRIPOS>MOLECULE
ASD04840055
  44   45    0    0    0
SMALL
NO_CHARGES


@<TRIPOS>ATOM
   1 C1             0.3008     0.6127    -0.1733 C.ar    
   2 C2             0.4953    -0.6668     0.3280 C.ar    
   3 C3             1.7568    -1.1037     0.6691 C.ar    
   4 C4             2.8479    -0.2559     0.5101 C.ar    
   5 C5             2.6454     1.0401     0.0011 C.ar    
   6 C6             1.3587     1.4621    -0.3377 C.ar    
   7 N7             4.1967    -0.3914     0.7515 N.pl3   
   8 C8             4.8477     0.7643     0.4155 C.2     
   9 C9             3.9681     1.6682    -0.0442 C.2     
  10 C10            4.2818     3.0642    -0.5171 C.3     
  11 C11            4.6415     3.0303    -2.0039 C.3     
  12 C12            6.3324     0.9893     0.5431 C.3     
  13 C13            7.0101    -0.3124     0.9756 C.3     
  14 C14            6.8985     1.4350    -0.8067 C.3     
  15 C15            6.5958     2.0737     1.5898 C.3     
  16 P16            3.1683     2.5722    -2.9751 P.3     
  17 O17            3.3744     2.9492    -4.3914 O.2     
  18 O18            2.9302     0.9833    -2.8719 O.3     
  19 O19            1.8812     3.3465    -2.3955 O.3     
  20 P20            5.2255     4.6765    -2.5255 P.3     
  21 O21            4.1557     5.6740    -2.2994 O.2     
  22 O22            6.5265     5.0811    -1.6677 O.3     
  23 O23            5.6040     4.6408    -4.0900 O.3     
  24 H24           -0.6939     0.9382    -0.4398 H       
  25 H25           -0.3507    -1.3265     0.4522 H       
  26 H26            1.8978    -2.1009     1.0591 H       
  27 H27            1.1998     2.4563    -0.7287 H       
  28 H28            4.6220    -1.1873     1.1071 H       
  29 H29            3.4108     3.7025    -0.3685 H       
  30 H30            5.1234     3.4599     0.0514 H       
  31 H31            5.4293     2.2957    -2.1704 H       
  32 H32            6.8225    -1.0850     0.2299 H       
  33 H33            8.0839    -0.1497     1.0679 H       
  34 H34            6.6068    -0.6300     1.9372 H       
  35 H35            6.6213     2.4727    -0.9921 H       
  36 H36            7.9848     1.3461    -0.7922 H       
  37 H37            6.4927     0.8037    -1.5972 H       
  38 H38            6.1042     1.8036     2.5244 H       
  39 H39            7.6691     2.1644     1.7568 H       
  40 H40            6.2017     3.0256     1.2339 H       
  41 H41            2.6963     0.6774    -1.9849 H       
  42 H42            1.0593     3.1500    -2.8655 H       
  43 H43            7.2692     4.4700    -1.7677 H       
  44 H44            5.9232     5.4852    -4.4368 H       
@<TRIPOS>BOND
   1    1    2 ar
   2    1    6 ar
   3    1   24 1
   4    2    3 ar
   5    2   25 1
   6    3    4 ar
   7    3   26 1
   8    4    5 ar
   9    4    7 1
  10    5    6 ar
  11    5    9 1
  12    6   27 1
  13    7    8 1
  14    7   28 1
  15    8    9 2
  16    8   12 1
  17    9   10 1
  18   10   11 1
  19   10   29 1
  20   10   30 1
  21   11   16 1
  22   11   20 1
  23   11   31 1
  24   12   13 1
  25   12   14 1
  26   12   15 1
  27   13   32 1
  28   13   33 1
  29   13   34 1
  30   14   35 1
  31   14   36 1
  32   14   37 1
  33   15   38 1
  34   15   39 1
  35   15   40 1
  36   16   17 2
  37   16   18 1
  38   16   19 1
  39   18   41 1
  40   19   42 1
  41   20   21 2
  42   20   22 1
  43   20   23 1
  44   22   43 1
  45   23   44 1

#	End of record

