#	Name: ASD01883672
#	Creating user name:	WinNT
#	Creation time:	15. 06. 2019 19:46

#	Modifying user name:	WinNT
#	Modification time:	15. 06. 2019 19:46

#	Program:	/corina/corina34_cracker 3.40 0067  02.08.2006

@<TRIPOS>MOLECULE
ASD01883672
  56   59    0    0    0
SMALL
NO_CHARGES


@<TRIPOS>ATOM
   1 C1            -0.8041    -0.7450    -2.2976 C.2     
   2 C2            -0.4448    -1.3449    -1.1092 C.2     
   3 C3            -1.4216    -1.5414    -0.1098 C.2     
   4 C4            -2.6925    -1.1458    -0.3169 C.2     
   5 N5            -3.0588    -0.5507    -1.4901 N.pl3   
   6 C6            -2.1380    -0.3369    -2.4831 C.2     
   7 C7            -4.2586    -0.0652    -1.9462 C.2     
   8 C8            -4.0466     0.4198    -3.1876 C.2     
   9 N9            -2.7583     0.2494    -3.4992 N.2     
  10 Cl10           0.3752    -0.4899    -3.5457 Cl      
  11 N11            0.8698    -1.7536    -0.8973 N.pl3   
  12 C12            1.1887    -3.1732    -0.6929 C.3     
  13 C13            1.9855    -3.3173     0.6075 C.3     
  14 C14            3.2089    -2.3994     0.5558 C.3     
  15 C15            2.7521    -0.9444     0.4279 C.3     
  16 C16            1.9647    -0.7741    -0.8801 C.3     
  17 C17           -5.5679    -0.0722    -1.2002 C.3     
  18 C18           -6.3770    -1.3072    -1.6017 C.3     
  19 F19           -5.6536    -2.4619    -1.2849 F       
  20 F20           -7.5926    -1.3137    -0.9092 F       
  21 F21           -6.6247    -1.2751    -2.9783 F       
  22 C22            4.0136    -2.5638     1.8194 C.ar    
  23 C23            3.4799    -2.1761     3.0339 C.ar    
  24 C24            4.2182    -2.3269     4.1931 C.ar    
  25 C25            5.4898    -2.8657     4.1374 C.ar    
  26 C26            6.0233    -3.2543     2.9226 C.ar    
  27 C27            5.2836    -3.1076     1.7643 C.ar    
  28 C28            5.8651    -3.5312     0.4401 C.3     
  29 C29            4.9715    -4.6011    -0.1905 C.3     
  30 C30            5.9465    -2.3205    -0.4918 C.3     
  31 O31            7.1752    -4.0643     0.6439 O.3     
  32 H32           -1.1493    -2.0108     0.8240 H       
  33 H33           -3.4316    -1.3017     0.4550 H       
  34 H34           -4.7935     0.8730    -3.8226 H       
  35 H35            0.2656    -3.7485    -0.6215 H       
  36 H36            1.7851    -3.5379    -1.5292 H       
  37 H37            1.3563    -3.0377     1.4525 H       
  38 H38            2.3109    -4.3513     0.7221 H       
  39 H39            3.8250    -2.6635    -0.3037 H       
  40 H40            2.1157    -0.6871     1.2747 H       
  41 H41            3.6233    -0.2894     0.4147 H       
  42 H42            2.6265    -0.9428    -1.7296 H       
  43 H43            1.5526     0.2338    -0.9299 H       
  44 H44           -5.3750    -0.0973    -0.1277 H       
  45 H45           -6.1316     0.8274    -1.4471 H       
  46 H46            2.4863    -1.7551     3.0774 H       
  47 H47            3.8014    -2.0233     5.1421 H       
  48 H48            6.0668    -2.9828     5.0428 H       
  49 H49            7.0171    -3.6749     2.8790 H       
  50 H50            3.9899    -4.1767    -0.4011 H       
  51 H51            5.4231    -4.9506    -1.1189 H       
  52 H52            4.8650    -5.4383     0.4994 H       
  53 H53            6.7945    -1.6982    -0.2060 H       
  54 H54            6.0756    -2.6609    -1.5192 H       
  55 H55            5.0272    -1.7399    -0.4143 H       
  56 H56            7.6110    -4.3578    -0.1678 H       
@<TRIPOS>BOND
   1    1    2 2
   2    1   10 1
   3    1    6 1
   4    2    3 1
   5    2   11 1
   6    3    4 2
   7    3   32 1
   8    4    5 1
   9    4   33 1
  10    5    6 1
  11    5    7 1
  12    6    9 2
  13    7    8 2
  14    7   17 1
  15    8    9 1
  16    8   34 1
  17   11   12 1
  18   11   16 1
  19   12   13 1
  20   12   35 1
  21   12   36 1
  22   13   14 1
  23   13   37 1
  24   13   38 1
  25   14   15 1
  26   14   22 1
  27   14   39 1
  28   15   16 1
  29   15   40 1
  30   15   41 1
  31   16   42 1
  32   16   43 1
  33   17   18 1
  34   17   44 1
  35   17   45 1
  36   18   19 1
  37   18   20 1
  38   18   21 1
  39   22   23 ar
  40   22   27 ar
  41   23   24 ar
  42   23   46 1
  43   24   25 ar
  44   24   47 1
  45   25   26 ar
  46   25   48 1
  47   26   27 ar
  48   26   49 1
  49   27   28 1
  50   28   29 1
  51   28   30 1
  52   28   31 1
  53   29   50 1
  54   29   51 1
  55   29   52 1
  56   30   53 1
  57   30   54 1
  58   30   55 1
  59   31   56 1

#	End of record

