#	Name: ASD01901316
#	Creating user name:	WinNT
#	Creation time:	15. 06. 2019 19:53

#	Modifying user name:	WinNT
#	Modification time:	15. 06. 2019 19:53

#	Program:	/corina/corina34_cracker 3.40 0067  02.08.2006

@<TRIPOS>MOLECULE
ASD01901316
  43   46    0    0    0
SMALL
NO_CHARGES


@<TRIPOS>ATOM
   1 C1            -0.0166     1.3763     0.0096 C.ar    
   2 C2             0.0021    -0.0041     0.0020 C.ar    
   3 C3             1.2059    -0.6829    -0.0127 C.ar    
   4 C4             2.4043     0.0206    -0.0204 C.ar    
   5 C5             2.3936     1.4078    -0.0133 C.ar    
   6 C6             1.1805     2.0902     0.0020 C.ar    
   7 C7             1.1618     3.5743     0.0097 C.2     
   8 N8             0.8393     5.5905     1.1949 N.2     
   9 C9             0.8546     4.2801     1.1932 C.2     
  10 C10            1.4473     4.2768    -1.1274 C.2     
  11 C11            1.1125     6.2881     0.0820 C.2     
  12 N12            1.1586     7.5916    -0.1536 N.2     
  13 N13            1.4212     5.6392    -1.0858 N.pl3   
  14 C14            1.6547     6.5999    -2.0327 C.2     
  15 C15            1.4863     7.7974    -1.4327 C.2     
  16 C16            1.6424     9.1421    -2.0948 C.3     
  17 O17            1.9977     8.9592    -3.4668 O.3     
  18 C18            2.1777    10.0810    -4.2123 C.ar    
  19 C19            2.0212    11.3323    -3.6339 C.ar    
  20 C20            2.5238     9.9770    -5.5518 C.ar    
  21 C21            2.7062    11.1189    -6.3075 C.ar    
  22 C22            2.5445    12.3647    -5.7300 C.ar    
  23 C23            2.2047    12.4711    -4.3940 C.ar    
  24 C24           -1.3320     2.1116     0.0198 C.3     
  25 N25            3.6192    -0.6688    -0.0348 N.pl3   
  26 H26           -0.9267    -0.5551     0.0080 H       
  27 H27            1.2152    -1.7629    -0.0179 H       
  28 H28            3.3237     1.9566    -0.0189 H       
  29 H29            0.6310     3.7382     2.1002 H       
  30 H30            1.6902     3.7607    -2.0445 H       
  31 H31            1.9235     6.4316    -3.0651 H       
  32 H32            0.7015     9.6889    -2.0329 H       
  33 H33            2.4251     9.7074    -1.5890 H       
  34 H34            1.7559    11.4159    -2.5904 H       
  35 H35            2.6509     9.0041    -6.0032 H       
  36 H36            2.9756    11.0385    -7.3503 H       
  37 H37            2.6879    13.2563    -6.3225 H       
  38 H38            2.0830    13.4454    -3.9441 H       
  39 H39           -1.6443     2.2833     1.0499 H       
  40 H40           -1.2173     3.0685    -0.4893 H       
  41 H41           -2.0859     1.5149    -0.4937 H       
  42 H42            3.6264    -1.6387    -0.0395 H       
  43 H43            4.4555    -0.1775    -0.0402 H       
@<TRIPOS>BOND
   1    1    2 ar
   2    1    6 ar
   3    1   24 1
   4    2    3 ar
   5    2   26 1
   6    3    4 ar
   7    3   27 1
   8    4    5 ar
   9    4   25 1
  10    5    6 ar
  11    5   28 1
  12    6    7 1
  13    7   10 2
  14    7    9 1
  15    8    9 2
  16    8   11 1
  17    9   29 1
  18   10   13 1
  19   10   30 1
  20   11   13 1
  21   11   12 2
  22   12   15 1
  23   13   14 1
  24   14   15 2
  25   14   31 1
  26   15   16 1
  27   16   17 1
  28   16   32 1
  29   16   33 1
  30   17   18 1
  31   18   20 ar
  32   18   19 ar
  33   19   23 ar
  34   19   34 1
  35   20   21 ar
  36   20   35 1
  37   21   22 ar
  38   21   36 1
  39   22   23 ar
  40   22   37 1
  41   23   38 1
  42   24   39 1
  43   24   40 1
  44   24   41 1
  45   25   42 1
  46   25   43 1

#	End of record

