#	Name: ASD01913669
#	Creating user name:	WinNT
#	Creation time:	15. 06. 2019 20:02

#	Modifying user name:	WinNT
#	Modification time:	15. 06. 2019 20:02

#	Program:	/corina/corina34_cracker 3.40 0067  02.08.2006

@<TRIPOS>MOLECULE
ASD01913669
  39   41    0    0    0
SMALL
NO_CHARGES


@<TRIPOS>ATOM
   1 C1             0.0407     1.5169     0.0264 C.ar    
   2 C2             0.0770     0.1333    -0.0025 C.ar    
   3 C3            -1.1018    -0.5884    -0.0156 C.ar    
   4 C4            -2.3165     0.0709    -0.0004 C.ar    
   5 C5            -2.3541     1.4527     0.0285 C.ar    
   6 C6            -1.1770     2.1761     0.0479 C.ar    
   7 C7            -3.6793     2.1700     0.0445 C.3     
   8 O8            -4.0971     2.3687     1.3966 O.3     
   9 C9            -5.2782     3.0044     1.5884 C.ar    
  10 N10           -5.9807     3.4062     0.5405 N.ar    
  11 C11           -7.1336     4.0277     0.6750 C.ar    
  12 C12           -7.6584     4.2860     1.9418 C.ar    
  13 C13           -6.9388     3.8733     3.0732 C.ar    
  14 C14           -5.7382     3.2206     2.8840 C.ar    
  15 C15           -8.9507     4.9834     2.0894 C.2     
  16 N16           -9.6334     5.3759     0.9956 N.am    
  17 O17           -9.3996     5.2039     3.1978 O.2     
  18 F18            1.1922     2.2233     0.0392 F       
  19 C19          -10.8987     5.9612     1.1323 C.ar    
  20 C20          -11.8182     5.8831     0.0921 C.ar    
  21 C21          -13.0666     6.4621     0.2302 C.ar    
  22 C22          -13.3997     7.1188     1.4027 C.ar    
  23 C23          -12.4848     7.1971     2.4392 C.ar    
  24 C24          -11.2388     6.6151     2.3085 C.ar    
  25 F25          -11.4923     5.2430    -1.0521 F       
  26 F26          -14.6194     7.6846     1.5356 F       
  27 H27            1.0261    -0.3820    -0.0151 H       
  28 H28           -1.0736    -1.6678    -0.0381 H       
  29 H29           -3.2371    -0.4938    -0.0114 H       
  30 H30           -1.2065     3.2555     0.0707 H       
  31 H31           -3.5756     3.1362    -0.4494 H       
  32 H32           -4.4230     1.5712    -0.4813 H       
  33 H33           -7.6781     4.3409    -0.2036 H       
  34 H34           -7.3174     4.0581     4.0676 H       
  35 H35           -5.1578     2.8884     3.7320 H       
  36 H36           -9.2486     5.2530     0.1137 H       
  37 H37          -13.7817     6.4022    -0.5769 H       
  38 H38          -12.7473     7.7100     3.3527 H       
  39 H39          -10.5262     6.6766     3.1177 H       
@<TRIPOS>BOND
   1    1    2 ar
   2    1   18 1
   3    1    6 ar
   4    2    3 ar
   5    2   27 1
   6    3    4 ar
   7    3   28 1
   8    4    5 ar
   9    4   29 1
  10    5    6 ar
  11    5    7 1
  12    6   30 1
  13    7    8 1
  14    7   31 1
  15    7   32 1
  16    8    9 1
  17    9   10 ar
  18    9   14 ar
  19   10   11 ar
  20   11   12 ar
  21   11   33 1
  22   12   13 ar
  23   12   15 1
  24   13   14 ar
  25   13   34 1
  26   14   35 1
  27   15   16 am
  28   15   17 2
  29   16   19 1
  30   16   36 1
  31   19   20 ar
  32   19   24 ar
  33   20   21 ar
  34   20   25 1
  35   21   22 ar
  36   21   37 1
  37   22   23 ar
  38   22   26 1
  39   23   24 ar
  40   23   38 1
  41   24   39 1

#	End of record

