#	Name: ASD01148211
#	Creating user name:	WinNT
#	Creation time:	15. 06. 2019 19:02

#	Modifying user name:	WinNT
#	Modification time:	15. 06. 2019 19:02

#	Program:	/corina/corina34_cracker 3.40 0067  02.08.2006

@<TRIPOS>MOLECULE
ASD01148211
  55   58    0    0    0
SMALL
NO_CHARGES


@<TRIPOS>ATOM
   1 C1            -0.0167     1.3791     0.0096 C.ar    
   2 C2             0.0021    -0.0041     0.0020 C.ar    
   3 C3             1.2100    -0.6790    -0.0131 C.ar    
   4 C4             2.3967     0.0290    -0.0207 C.ar    
   5 C5             2.3773     1.4115    -0.0131 C.ar    
   6 C6             1.1711     2.0862     0.0021 C.ar    
   7 C7             3.6719     2.1830    -0.0208 C.3     
   8 O8             4.6968     1.4643    -0.7367 O.3     
   9 C9             3.5429     3.4728    -0.8657 C.3     
  10 C10            4.0465     3.0278    -2.2256 C.2     
  11 N11            4.6717     1.9080    -2.0789 N.2     
  12 C12            3.8544     3.7508    -3.4981 C.ar    
  13 C13            4.3730     3.2265    -4.6848 C.ar    
  14 C14            3.1488     4.9566    -3.5169 C.ar    
  15 C15            2.9693     5.6305    -4.7037 C.ar    
  16 C16            3.4925     5.1089    -5.8893 C.ar    
  17 C17            4.1933     3.9007    -5.8715 C.ar    
  18 C18            3.2992     5.8323    -7.1635 C.2     
  19 O19            2.6850     6.8812    -7.1798 O.2     
  20 N20            3.8040     5.3291    -8.3074 N.am    
  21 C21            4.1230     2.5044     1.4054 C.3     
  22 F22            4.2976     1.3138     2.1189 F       
  23 F23            5.3330     3.2055     1.3649 F       
  24 F24            3.1509     3.2880     2.0366 F       
  25 Cl25          -1.4892    -0.8928     0.0121 Cl      
  26 N26            3.6208     6.0148    -9.5153 N.pl3   
  27 C27            4.4016     7.2217    -9.7981 C.3     
  28 C28            2.6937     5.5478   -10.4498 C.ar    
  29 C29            2.5108     6.2266   -11.6479 C.ar    
  30 C30            1.5937     5.7618   -12.5700 C.ar    
  31 C31            0.8578     4.6222   -12.3016 C.ar    
  32 C32            1.0370     3.9444   -11.1096 C.ar    
  33 C33            1.9566     4.4004   -10.1857 C.ar    
  34 C34            1.2313    -2.1858    -0.0209 C.3     
  35 F35            2.5567    -2.6334    -0.0361 F       
  36 F36            0.5896    -2.6672     1.1252 F       
  37 F37            0.5673    -2.6557    -1.1592 F       
  38 H38           -0.9592     1.9064     0.0169 H       
  39 H39            3.3395    -0.4977    -0.0321 H       
  40 H40            1.1566     3.1661     0.0077 H       
  41 H41            2.5031     3.7945    -0.9245 H       
  42 H42            4.1719     4.2654    -0.4605 H       
  43 H43            4.9152     2.2926    -4.6710 H       
  44 H44            2.7440     5.3598    -2.6004 H       
  45 H45            2.4236     6.5624    -4.7183 H       
  46 H46            4.5978     3.4975    -6.7881 H       
  47 H47            4.2941     4.4921    -8.2943 H       
  48 H48            5.3259     6.9458   -10.3057 H       
  49 H49            3.8217     7.8883   -10.4364 H       
  50 H50            4.6381     7.7289    -8.8628 H       
  51 H51            3.0849     7.1169   -11.8580 H       
  52 H52            1.4507     6.2892   -13.5015 H       
  53 H53            0.1412     4.2609   -13.0243 H       
  54 H54            0.4605     3.0549   -10.9030 H       
  55 H55            2.0961     3.8706    -9.2549 H       
@<TRIPOS>BOND
   1    1    2 ar
   2    1    6 ar
   3    1   38 1
   4    2    3 ar
   5    2   25 1
   6    3    4 ar
   7    3   34 1
   8    4    5 ar
   9    4   39 1
  10    5    6 ar
  11    5    7 1
  12    6   40 1
  13    7    8 1
  14    7    9 1
  15    7   21 1
  16    8   11 1
  17    9   10 1
  18    9   41 1
  19    9   42 1
  20   10   11 2
  21   10   12 1
  22   12   13 ar
  23   12   14 ar
  24   13   17 ar
  25   13   43 1
  26   14   15 ar
  27   14   44 1
  28   15   16 ar
  29   15   45 1
  30   16   17 ar
  31   16   18 1
  32   17   46 1
  33   18   19 2
  34   18   20 am
  35   20   26 1
  36   20   47 1
  37   21   22 1
  38   21   23 1
  39   21   24 1
  40   26   27 1
  41   26   28 1
  42   27   48 1
  43   27   49 1
  44   27   50 1
  45   28   29 ar
  46   28   33 ar
  47   29   30 ar
  48   29   51 1
  49   30   31 ar
  50   30   52 1
  51   31   32 ar
  52   31   53 1
  53   32   33 ar
  54   32   54 1
  55   33   55 1
  56   34   35 1
  57   34   36 1
  58   34   37 1

#	End of record

