#	Name: ASD01120047
#	Creating user name:	WinNT
#	Creation time:	15. 06. 2019 18:58

#	Modifying user name:	WinNT
#	Modification time:	15. 06. 2019 18:58

#	Program:	/corina/corina34_cracker 3.40 0067  02.08.2006

@<TRIPOS>MOLECULE
ASD01120047
  51   54    0    0    0
SMALL
NO_CHARGES


@<TRIPOS>ATOM
   1 C1            -0.0896     1.3602     0.6768 C.ar    
   2 C2            -0.0578    -0.0348     0.5424 C.ar    
   3 C3            -1.1967    -0.7358     0.2126 C.ar    
   4 C4            -2.3976    -0.0451     0.0099 C.ar    
   5 C5            -2.4219     1.3650     0.1476 C.ar    
   6 C6            -1.2517     2.0533     0.4891 C.ar    
   7 N7            -3.5346    -0.6811    -0.3134 N.ar    
   8 C8            -4.6445    -0.0068    -0.4974 C.ar    
   9 N9            -4.7148     1.3097    -0.3801 N.ar    
  10 C10           -3.6503     2.0354    -0.0638 C.ar    
  11 N11           -3.7382     3.4078     0.0556 N.pl3   
  12 C12           -4.9827     4.0393    -0.0356 C.ar    
  13 C13           -6.1285     3.3766     0.3765 C.ar    
  14 C14           -7.3658     4.0098     0.2843 C.ar    
  15 C15           -7.4456     5.3060    -0.2218 C.ar    
  16 C16           -6.3002     5.9599    -0.6309 C.ar    
  17 C17           -5.0708     5.3349    -0.5345 C.ar    
  18 C18           -8.5958     3.3059     0.7232 C.2     
  19 O19            1.0478     2.0303     1.0032 O.3     
  20 O20            1.1088    -0.7024     0.7391 O.3     
  21 C21            0.9514     3.4508     1.1255 C.3     
  22 C22            2.3206     4.0250     1.4948 C.3     
  23 C23            1.0769    -2.1230     0.5877 C.3     
  24 C24            2.4722    -2.6949     0.8460 C.3     
  25 C25           -9.8219     3.8629     0.6598 C.2     
  26 S26          -10.9819     2.6886     1.2756 S.3     
  27 C27           -9.7202     1.5706     1.5573 C.2     
  28 N28           -8.5868     2.0721     1.2068 N.2     
  29 C29           -9.9082     0.1895     2.1302 C.3     
  30 Cl30          -3.6353     6.1634    -1.0508 Cl      
  31 H31           -1.1634    -1.8105     0.1106 H       
  32 H32           -1.2656     3.1280     0.5951 H       
  33 H33           -5.5412    -0.5501    -0.7566 H       
  34 H34           -2.9369     3.9342     0.2028 H       
  35 H35           -6.0621     2.3721     0.7677 H       
  36 H36           -8.4038     5.7990    -0.2943 H       
  37 H37           -6.3645     6.9642    -1.0230 H       
  38 H38            0.6230     3.8757     0.1770 H       
  39 H39            0.2307     3.7003     1.9043 H       
  40 H40            3.0413     3.7754     0.7160 H       
  41 H41            2.2471     5.1085     1.5881 H       
  42 H42            2.6490     3.6000     2.4433 H       
  43 H43            0.3718    -2.5487     1.3016 H       
  44 H44            0.7635    -2.3733    -0.4258 H       
  45 H45            3.1773    -2.2692     0.1320 H       
  46 H46            2.7856    -2.4445     1.8595 H       
  47 H47            2.4479    -3.7785     0.7304 H       
  48 H48          -10.0522     4.8535     0.2962 H       
  49 H49          -10.9658     0.0210     2.3329 H       
  50 H50           -9.5527    -0.5521     1.4148 H       
  51 H51           -9.3419     0.1005     3.0574 H       
@<TRIPOS>BOND
   1    1    2 ar
   2    1   19 1
   3    1    6 ar
   4    2    3 ar
   5    2   20 1
   6    3    4 ar
   7    3   31 1
   8    4    5 ar
   9    4    7 ar
  10    5    6 ar
  11    5   10 ar
  12    6   32 1
  13    7    8 ar
  14    8    9 ar
  15    8   33 1
  16    9   10 ar
  17   10   11 1
  18   11   12 1
  19   11   34 1
  20   12   13 ar
  21   12   17 ar
  22   13   14 ar
  23   13   35 1
  24   14   15 ar
  25   14   18 1
  26   15   16 ar
  27   15   36 1
  28   16   17 ar
  29   16   37 1
  30   17   30 1
  31   18   25 2
  32   18   28 1
  33   19   21 1
  34   20   23 1
  35   21   22 1
  36   21   38 1
  37   21   39 1
  38   22   40 1
  39   22   41 1
  40   22   42 1
  41   23   24 1
  42   23   43 1
  43   23   44 1
  44   24   45 1
  45   24   46 1
  46   24   47 1
  47   25   26 1
  48   25   48 1
  49   26   27 1
  50   27   28 2
  51   27   29 1
  52   29   49 1
  53   29   50 1
  54   29   51 1

#	End of record

