#	Name: ASD01001273
#	Creating user name:	WinNT
#	Creation time:	15. 06. 2019 18:55

#	Modifying user name:	WinNT
#	Modification time:	15. 06. 2019 18:55

#	Program:	/corina/corina34_cracker 3.40 0067  02.08.2006

@<TRIPOS>MOLECULE
ASD01001273
  57   59    0    0    0
SMALL
NO_CHARGES


@<TRIPOS>ATOM
   1 C1            -0.0106     1.4922    -0.5132 C.ar    
   2 C2             0.0181     0.2332    -1.0969 C.ar    
   3 C3            -1.1463    -0.2993    -1.6571 C.ar    
   4 C4            -2.3255     0.4489    -1.6197 C.ar    
   5 C5            -2.3459     1.6959    -1.0387 C.ar    
   6 C6            -1.1933     2.2199    -0.4798 C.ar    
   7 C7            -1.4160    -1.5821    -2.3323 C.2     
   8 C8            -2.6802    -1.6646    -2.7083 C.2     
   9 C9            -3.3814    -0.3913    -2.2965 C.3     
  10 C10           -4.5161    -0.7040    -1.3190 C.3     
  11 C11           -3.9269     0.3348    -3.5278 C.3     
  12 F12            1.1681    -0.4752    -1.1238 F       
  13 N13            1.1535     2.0272     0.0481 N.3     
  14 C14            1.5254     3.2861    -0.6113 C.3     
  15 C15            2.9475     3.6375    -0.2574 C.ar    
  16 C16            3.9941     3.0853    -0.9718 C.ar    
  17 C17            5.2986     3.4076    -0.6472 C.ar    
  18 C18            5.5564     4.2825     0.3916 C.ar    
  19 C19            4.5096     4.8354     1.1054 C.ar    
  20 C20            3.2050     4.5165     0.7779 C.ar    
  21 C21            1.0003     2.2170     1.4967 C.3     
  22 C22            1.1342     0.8879     2.1944 C.2     
  23 N23            0.9035     0.7960     3.5191 N.am    
  24 O24            1.4496    -0.0989     1.5638 O.2     
  25 C25            0.4360     1.9674     4.2643 C.3     
  26 C26           -1.0937     1.9979     4.2595 C.3     
  27 C27            1.1202    -0.4755     4.2138 C.3     
  28 C28            2.5906    -0.5901     4.6209 C.3     
  29 H29           -3.2633     2.2653    -1.0160 H       
  30 H30           -1.2116     3.1990    -0.0242 H       
  31 H31           -0.6775    -2.3526    -2.4981 H       
  32 H32           -3.1342    -2.4990    -3.2222 H       
  33 H33           -4.1118    -1.2123    -0.4436 H       
  34 H34           -4.9962     0.2246    -1.0104 H       
  35 H35           -5.2487    -1.3473    -1.8065 H       
  36 H36           -4.6553    -0.3009    -4.0314 H       
  37 H37           -4.4071     1.2633    -3.2189 H       
  38 H38           -3.1071     0.5592    -4.2102 H       
  39 H39            1.4378     3.1701    -1.6916 H       
  40 H40            0.8603     4.0821    -0.2763 H       
  41 H41            3.7928     2.4017    -1.7834 H       
  42 H42            6.1164     2.9756    -1.2049 H       
  43 H43            6.5755     4.5338     0.6456 H       
  44 H44            4.7110     5.5187     1.9171 H       
  45 H45            2.3873     4.9485     1.3356 H       
  46 H46            1.7724     2.8964     1.8578 H       
  47 H47            0.0176     2.6397     1.7059 H       
  48 H48            0.7951     1.9114     5.2919 H       
  49 H49            0.8189     2.8734     3.7945 H       
  50 H50           -1.4415     2.8695     4.8139 H       
  51 H51           -1.4527     2.0539     3.2318 H       
  52 H52           -1.4766     1.0919     4.7292 H       
  53 H53            0.4927    -0.5146     5.1041 H       
  54 H54            0.8616    -1.3007     3.5504 H       
  55 H55            3.2220    -0.4639     3.7414 H       
  56 H56            2.8267     0.1835     5.3516 H       
  57 H57            2.7708    -1.5714     5.0597 H       
@<TRIPOS>BOND
   1    1    2 ar
   2    1   13 1
   3    1    6 ar
   4    2    3 ar
   5    2   12 1
   6    3    4 ar
   7    3    7 1
   8    4    5 ar
   9    4    9 1
  10    5    6 ar
  11    5   29 1
  12    6   30 1
  13    7    8 2
  14    7   31 1
  15    8    9 1
  16    8   32 1
  17    9   10 1
  18    9   11 1
  19   10   33 1
  20   10   34 1
  21   10   35 1
  22   11   36 1
  23   11   37 1
  24   11   38 1
  25   13   14 1
  26   13   21 1
  27   14   15 1
  28   14   39 1
  29   14   40 1
  30   15   16 ar
  31   15   20 ar
  32   16   17 ar
  33   16   41 1
  34   17   18 ar
  35   17   42 1
  36   18   19 ar
  37   18   43 1
  38   19   20 ar
  39   19   44 1
  40   20   45 1
  41   21   22 1
  42   21   46 1
  43   21   47 1
  44   22   23 am
  45   22   24 2
  46   23   25 1
  47   23   27 1
  48   25   26 1
  49   25   48 1
  50   25   49 1
  51   26   50 1
  52   26   51 1
  53   26   52 1
  54   27   28 1
  55   27   53 1
  56   27   54 1
  57   28   55 1
  58   28   56 1
  59   28   57 1

#	End of record

