#	Name: ASD01440128
#	Creating user name:	WinNT
#	Creation time:	15. 06. 2019 19:21

#	Modifying user name:	WinNT
#	Modification time:	15. 06. 2019 19:21

#	Program:	/corina/corina34_cracker 3.40 0067  02.08.2006

@<TRIPOS>MOLECULE
ASD01440128
  44   46    0    0    0
SMALL
NO_CHARGES


@<TRIPOS>ATOM
   1 C1            -0.2751     1.4167     0.1728 C.ar    
   2 C2            -0.4434     0.0513     0.2199 C.ar    
   3 C3             0.6654    -0.7870     0.2565 C.ar    
   4 C4             1.9482    -0.2507     0.2459 C.ar    
   5 C5             2.1256     1.1136     0.1985 C.ar    
   6 C6             1.0133     1.9604     0.1615 C.ar    
   7 C7             1.1985     3.4228     0.1106 C.2     
   8 O8             0.2349     4.1536    -0.0158 O.2     
   9 C9             2.5546     3.9996     0.2133 C.ar    
  10 O10            0.4950    -2.1324     0.3033 O.3     
  11 C11            1.6767    -2.9351     0.3392 C.3     
  12 C12            1.2932    -4.3916     0.3886 C.2     
  13 N13            2.2505    -5.3395     0.4282 N.am    
  14 O14            0.1232    -4.7109     0.3927 O.2     
  15 C15            3.1965     4.4908    -0.9261 C.ar    
  16 C16            4.4622     5.0278    -0.8231 C.ar    
  17 C17            5.0978     5.0808     0.4056 C.ar    
  18 C18            4.4693     4.5967     1.5385 C.ar    
  19 C19            3.1992     4.0618     1.4517 C.ar    
  20 Br20           2.3379     3.4074     3.0028 Br      
  21 C21            1.8975    -6.6843     0.5882 C.ar    
  22 C22            2.7492    -7.6954     0.1498 C.ar    
  23 C23            2.3561    -9.0112     0.3307 C.ar    
  24 C24            1.1413    -9.2760     0.9355 C.ar    
  25 N25            0.3576    -8.2956     1.3395 N.ar    
  26 C26            0.6957    -7.0302     1.1915 C.ar    
  27 C27            4.0656    -7.3660    -0.5056 C.3     
  28 H28           -1.1368     2.0669     0.1402 H       
  29 H29           -1.4380    -0.3695     0.2287 H       
  30 H30            2.8066    -0.9054     0.2752 H       
  31 H31            3.1223     1.5293     0.1906 H       
  32 H32            2.2716    -2.7461    -0.5544 H       
  33 H33            2.2606    -2.6828     1.2244 H       
  34 H34            3.1842    -5.0897     0.3459 H       
  35 H35            2.7025     4.4497    -1.8857 H       
  36 H36            4.9593     5.4078    -1.7034 H       
  37 H37            6.0896     5.5020     0.4799 H       
  38 H38            4.9712     4.6409     2.4938 H       
  39 H39            2.9911    -9.8209     0.0028 H       
  40 H40            0.8298   -10.3002     1.0787 H       
  41 H41            0.0295    -6.2546     1.5393 H       
  42 H42            4.8431    -7.2974     0.2552 H       
  43 H43            4.3228    -8.1496    -1.2183 H       
  44 H44            3.9830    -6.4128    -1.0278 H       
@<TRIPOS>BOND
   1    1    2 ar
   2    1    6 ar
   3    1   28 1
   4    2    3 ar
   5    2   29 1
   6    3    4 ar
   7    3   10 1
   8    4    5 ar
   9    4   30 1
  10    5    6 ar
  11    5   31 1
  12    6    7 1
  13    7    8 2
  14    7    9 1
  15    9   15 ar
  16    9   19 ar
  17   10   11 1
  18   11   12 1
  19   11   32 1
  20   11   33 1
  21   12   13 am
  22   12   14 2
  23   13   21 1
  24   13   34 1
  25   15   16 ar
  26   15   35 1
  27   16   17 ar
  28   16   36 1
  29   17   18 ar
  30   17   37 1
  31   18   19 ar
  32   18   38 1
  33   19   20 1
  34   21   22 ar
  35   21   26 ar
  36   22   23 ar
  37   22   27 1
  38   23   24 ar
  39   23   39 1
  40   24   25 ar
  41   24   40 1
  42   25   26 ar
  43   26   41 1
  44   27   42 1
  45   27   43 1
  46   27   44 1

#	End of record

