#	Name: ASD02198590
#	Creating user name:	WinNT
#	Creation time:	15. 06. 2019 20:19

#	Modifying user name:	WinNT
#	Modification time:	15. 06. 2019 20:19

#	Program:	/corina/corina34_cracker 3.40 0067  02.08.2006

@<TRIPOS>MOLECULE
ASD02198590
  48   52    0    0    0
SMALL
NO_CHARGES


@<TRIPOS>ATOM
   1 C1             0.1732     1.7634     0.3230 C.2     
   2 C2             0.0220     0.5131     0.8273 C.2     
   3 N3             1.0223    -0.3935     0.7447 N.pl3   
   4 N4             2.1550    -0.1443     0.1987 N.2     
   5 C5             2.4335     1.0280    -0.3294 C.2     
   6 C6             1.4086     2.0839    -0.2897 C.2     
   7 C7             0.8105    -1.6654     1.2817 C.ar    
   8 C8             1.4695    -2.0517     2.4547 C.ar    
   9 C9             1.2513    -3.3223     2.9818 C.ar    
  10 C10            0.3887    -4.1928     2.3471 C.ar    
  11 C11           -0.2620    -3.8088     1.1872 C.ar    
  12 C12           -0.0585    -2.5495     0.6576 C.ar    
  13 C13            3.7498     1.2800    -0.9500 C.2     
  14 N14            3.9759     1.7254    -2.2221 N.pl3   
  15 N15            5.3615     1.8271    -2.3985 N.2     
  16 C16            5.9549     1.4623    -1.2900 C.2     
  17 C17            4.9809     1.1161    -0.3535 C.2     
  18 C18            2.9973     2.0259    -3.1781 C.ar    
  19 C19            1.8854     1.2057    -3.3170 C.ar    
  20 O20            1.6153     3.1902    -0.7655 O.2     
  21 C21            3.1342     3.1477    -3.9851 C.ar    
  22 C22            2.1673     3.4415    -4.9265 C.ar    
  23 C23            1.0636     2.6201    -5.0657 C.ar    
  24 C24            0.9220     1.5049    -4.2603 C.ar    
  25 C25            2.3958    -1.1128     3.1327 C.ar    
  26 C26            1.9499     0.1478     3.5263 C.ar    
  27 C27            3.7140    -1.4897     3.3838 C.ar    
  28 C28            4.5716    -0.6118     4.0150 C.ar    
  29 C29            4.1251     0.6399     4.3987 C.ar    
  30 C30            2.8164     1.0174     4.1568 C.ar    
  31 H31           -0.6245     2.4891     0.3829 H       
  32 H32           -0.9088     0.2383     1.3012 H       
  33 H33            1.7571    -3.6263     3.8864 H       
  34 H34            0.2208    -5.1778     2.7569 H       
  35 H35           -0.9352    -4.4958     0.6961 H       
  36 H36           -0.5690    -2.2558    -0.2477 H       
  37 H37            7.0222     1.4374    -1.1264 H       
  38 H38            5.1597     0.7753     0.6556 H       
  39 H39            1.7742     0.3346    -2.6884 H       
  40 H40            3.9957     3.7899    -3.8764 H       
  41 H41            2.2732     4.3138    -5.5544 H       
  42 H42            0.3085     2.8524    -5.8021 H       
  43 H43            0.0588     0.8654    -4.3714 H       
  44 H44            0.9284     0.4435     3.3379 H       
  45 H45            4.0635    -2.4670     3.0853 H       
  46 H46            5.5932    -0.9028     4.2100 H       
  47 H47            4.7995     1.3234     4.8930 H       
  48 H48            2.4732     1.9959     4.4585 H       
@<TRIPOS>BOND
   1    1    2 2
   2    1    6 1
   3    1   31 1
   4    2    3 1
   5    2   32 1
   6    3    4 1
   7    3    7 1
   8    4    5 2
   9    5    6 1
  10    5   13 1
  11    6   20 2
  12    7    8 ar
  13    7   12 ar
  14    8    9 ar
  15    8   25 1
  16    9   10 ar
  17    9   33 1
  18   10   11 ar
  19   10   34 1
  20   11   12 ar
  21   11   35 1
  22   12   36 1
  23   13   14 1
  24   13   17 2
  25   14   15 1
  26   14   18 1
  27   15   16 2
  28   16   17 1
  29   16   37 1
  30   17   38 1
  31   18   21 ar
  32   18   19 ar
  33   19   24 ar
  34   19   39 1
  35   21   22 ar
  36   21   40 1
  37   22   23 ar
  38   22   41 1
  39   23   24 ar
  40   23   42 1
  41   24   43 1
  42   25   26 ar
  43   25   27 ar
  44   26   30 ar
  45   26   44 1
  46   27   28 ar
  47   27   45 1
  48   28   29 ar
  49   28   46 1
  50   29   30 ar
  51   29   47 1
  52   30   48 1

#	End of record

