#	Name: ASD01230281
#	Creating user name:	WinNT
#	Creation time:	15. 06. 2019 19:12

#	Modifying user name:	WinNT
#	Modification time:	15. 06. 2019 19:12

#	Program:	/corina/corina34_cracker 3.40 0067  02.08.2006

@<TRIPOS>MOLECULE
ASD01230281
  90  101    0    0    0
SMALL
NO_CHARGES


@<TRIPOS>ATOM
   1 O1             3.9938    -7.2080     1.6313 O.2     
   2 O2            -4.0028    -4.2912    -0.9325 O.2     
   3 C3            -0.0184     1.5027     0.0103 C.3     
   4 N4             1.0675    -0.7142    -0.0115 N.2     
   5 C5             3.7212    -8.3093    -4.9874 C.3     
   6 N6             2.1211    -7.1336    -3.4705 N.2     
   7 C7             0.0021    -0.0041     0.0020 C.2     
   8 N8             0.8553    -2.0630    -0.0074 N.pl3   
   9 C9             2.9450    -8.0898    -3.7181 C.2     
  10 N10            1.4903    -7.2754    -2.2161 N.pl3   
  11 C11           -0.6252    -2.2944    -0.0440 C.3     
  12 N12            4.0809    -8.0750    -0.2475 N.am    
  13 C13            1.6369    -8.6909    -1.9024 C.3     
  14 N14           -2.6811    -2.5870    -1.5339 N.am    
  15 C15           -1.1007    -3.2908     1.0248 C.3     
  16 C16            1.5030    -9.2373    -0.5162 C.3     
  17 C17           -1.6726    -2.5051     2.2105 C.3     
  18 C18            1.6116   -10.7687    -0.6444 C.3     
  19 C19           -2.8768    -1.6987     1.7172 C.3     
  20 C20            2.8557   -11.2060    -1.3909 C.3     
  21 C21           -2.3809    -0.4987     0.9119 C.3     
  22 C22            3.1711   -10.4270    -2.6623 C.3     
  23 C23           -1.2313    -0.8875     0.0013 C.3     
  24 C24            3.0567    -8.9403    -2.4527 C.3     
  25 C25            1.5873    -3.2315     0.0849 C.ar    
  26 C26            0.8302    -6.2660    -1.3893 C.3     
  27 C27            1.2959    -4.3145    -0.7339 C.ar    
  28 C28           -0.3941    -6.7836    -0.6612 C.3     
  29 C29            1.8533    -5.5827    -0.5430 C.ar    
  30 C30           -1.5556    -5.8524    -0.6039 C.2     
  31 C31            2.9277    -5.8292     0.3141 C.ar    
  32 C32           -1.7256    -4.7821    -1.3448 C.2     
  33 C33            3.3176    -4.6651     1.0571 C.ar    
  34 C34           -0.6824    -4.4335    -2.3794 C.3     
  35 C35            2.6690    -3.4620     0.9466 C.ar    
  36 C36            0.7037    -4.8685    -1.9727 C.3     
  37 C37            3.6407    -7.0691     0.4715 C.2     
  38 C38           -2.9044    -3.8782    -1.2479 C.2     
  39 C39            4.1981    -8.3186    -1.6853 C.3     
  40 C40           -1.4664    -1.8242    -1.1835 C.3     
  41 C41            5.5100    -9.1292    -1.8688 C.3     
  42 C42           -1.1183    -1.1901    -2.5440 C.3     
  43 C43            5.7133    -9.8397    -0.5179 C.3     
  44 C44           -2.5048    -0.9234    -3.1899 C.3     
  45 C45            4.6590    -9.2756     0.4421 C.3     
  46 C46           -3.5399    -1.6530    -2.2911 C.3     
  47 F47            1.2941     1.9870     0.0004 F       
  48 F48           -0.6950     1.9662    -1.1231 F       
  49 F49           -0.6732     1.9539     1.1613 F       
  50 F50            3.4173    -7.2945    -5.9012 F       
  51 F51            5.0914    -8.2883    -4.7057 F       
  52 F52            3.3769    -9.5494    -5.5361 F       
  53 H53            0.9188    -9.2326    -2.5505 H       
  54 H54           -1.8765    -3.9357     0.6304 H       
  55 H55           -0.2578    -3.8901     1.3662 H       
  56 H56            2.2701    -8.8559     0.1474 H       
  57 H57            0.5179    -8.9814    -0.1077 H       
  58 H58           -1.9896    -3.1994     2.9869 H       
  59 H59           -0.9135    -1.8306     2.6016 H       
  60 H60            1.6261   -11.2045     0.3550 H       
  61 H61            0.7329   -11.1388    -1.1741 H       
  62 H62           -3.5036    -2.3281     1.0860 H       
  63 H63           -3.4559    -1.3500     2.5721 H       
  64 H64            3.7086   -11.1586    -0.7201 H       
  65 H65            2.7216   -12.2589    -1.6691 H       
  66 H66           -3.2036    -0.1070     0.3107 H       
  67 H67           -2.0528     0.2782     1.6056 H       
  68 H68            4.1450   -10.7091    -3.0445 H       
  69 H69            2.4315   -10.7200    -3.4291 H       
  70 H70           -0.7189    -7.7006    -1.1529 H       
  71 H71           -0.1026    -7.0276     0.3605 H       
  72 H72           -2.3296    -6.0803     0.1155 H       
  73 H73            4.1601    -4.7456     1.7285 H       
  74 H74           -0.9450    -4.9398    -3.3137 H       
  75 H75           -0.6870    -3.3671    -2.5537 H       
  76 H76            3.0091    -2.6377     1.5576 H       
  77 H77            1.4138    -4.7332    -2.8174 H       
  78 H78            4.4110    -7.3249    -2.1548 H       
  79 H79            5.4601    -9.8325    -2.6848 H       
  80 H80            6.3459    -8.4374    -2.0419 H       
  81 H81           -0.5946    -0.2422    -2.3885 H       
  82 H82           -0.5187    -1.8450    -3.1622 H       
  83 H83            5.5854   -10.9141    -0.6331 H       
  84 H84            6.7130    -9.6251    -0.1352 H       
  85 H85           -2.7111     0.1451    -3.2081 H       
  86 H86           -2.5316    -1.3338    -4.1985 H       
  87 H87            5.1356    -8.9762     1.3780 H       
  88 H88            3.8827   -10.0091     0.6430 H       
  89 H89           -4.2590    -2.1999    -2.8950 H       
  90 H90           -4.0307    -0.9542    -1.6196 H       
@<TRIPOS>BOND
   1    1   37 2
   2    2   38 2
   3    3    7 1
   4    3   47 1
   5    3   48 1
   6    3   49 1
   7    4    7 2
   8    4    8 1
   9    5    9 1
  10    5   50 1
  11    5   51 1
  12    5   52 1
  13    6    9 2
  14    6   10 1
  15    7   23 1
  16    8   11 1
  17    8   25 1
  18    9   24 1
  19   10   13 1
  20   10   26 1
  21   11   15 1
  22   11   23 1
  23   11   40 1
  24   12   37 am
  25   12   39 1
  26   12   45 1
  27   13   16 1
  28   13   24 1
  29   13   53 1
  30   14   38 am
  31   14   40 1
  32   14   46 1
  33   15   17 1
  34   15   54 1
  35   15   55 1
  36   16   18 1
  37   16   56 1
  38   16   57 1
  39   17   19 1
  40   17   58 1
  41   17   59 1
  42   18   20 1
  43   18   60 1
  44   18   61 1
  45   19   21 1
  46   19   62 1
  47   19   63 1
  48   20   22 1
  49   20   64 1
  50   20   65 1
  51   21   23 1
  52   21   66 1
  53   21   67 1
  54   22   24 1
  55   22   68 1
  56   22   69 1
  57   23   40 1
  58   24   39 1
  59   25   27 ar
  60   25   35 ar
  61   26   28 1
  62   26   36 1
  63   26   29 1
  64   27   29 ar
  65   27   36 1
  66   28   30 1
  67   28   70 1
  68   28   71 1
  69   29   31 ar
  70   30   32 2
  71   30   72 1
  72   31   33 ar
  73   31   37 1
  74   32   34 1
  75   32   38 1
  76   33   35 ar
  77   33   73 1
  78   34   36 1
  79   34   74 1
  80   34   75 1
  81   35   76 1
  82   36   77 1
  83   39   41 1
  84   39   78 1
  85   40   42 1
  86   41   43 1
  87   41   79 1
  88   41   80 1
  89   42   44 1
  90   42   81 1
  91   42   82 1
  92   43   45 1
  93   43   83 1
  94   43   84 1
  95   44   46 1
  96   44   85 1
  97   44   86 1
  98   45   87 1
  99   45   88 1
 100   46   89 1
 101   46   90 1

#	End of record

