#	Name: ASD01884280
#	Creating user name:	WinNT
#	Creation time:	15. 06. 2019 19:47

#	Modifying user name:	WinNT
#	Modification time:	15. 06. 2019 19:47

#	Program:	/corina/corina34_cracker 3.40 0067  02.08.2006

@<TRIPOS>MOLECULE
ASD01884280
  37   40    0    0    0
SMALL
NO_CHARGES


@<TRIPOS>ATOM
   1 C1             0.0967     1.2304     0.1061 C.ar    
   2 C2             0.2583    -0.0071     0.7155 C.ar    
   3 C3            -0.7982    -0.8802     0.8256 C.ar    
   4 C4            -2.0649    -0.5428     0.3254 C.ar    
   5 C5            -2.2089     0.7046    -0.2836 C.ar    
   6 C6            -1.1482     1.5854    -0.3901 C.ar    
   7 N7            -3.2226    -1.3026     0.3562 N.am    
   8 C8            -4.3361    -0.7943    -0.1802 C.2     
   9 S9            -3.8997     0.8093    -0.7934 S.3     
  10 O10           -5.4295    -1.3262    -0.2367 O.2     
  11 C11           -3.2262    -2.6357     0.9635 C.3     
  12 C12           -3.5751    -2.5186     2.4486 C.3     
  13 C13           -3.7456    -3.8177     3.2388 C.3     
  14 C14           -2.5092    -2.9441     3.4604 C.3     
  15 F15           -1.2901    -3.4104     2.9568 F       
  16 F16           -2.4322    -2.2255     4.6583 F       
  17 O17            1.1471     2.0871     0.0023 O.3     
  18 C18            1.9437     1.9887    -1.0917 C.ar    
  19 C19            1.6167     1.1119    -2.1145 C.ar    
  20 C20            3.0983     2.7777    -1.1955 C.ar    
  21 C21            3.9100     2.6677    -2.3268 C.ar    
  22 C22            3.5723     1.7866    -3.3319 C.ar    
  23 C23            2.4286     1.0127    -3.2277 C.ar    
  24 C24            3.4430     3.6912    -0.1479 C.1     
  25 N25            3.7163     4.4159     0.6831 N.1     
  26 H26            1.2251    -0.2870     1.1070 H       
  27 H27           -0.6510    -1.8378     1.3028 H       
  28 H28           -1.2874     2.5449    -0.8661 H       
  29 H29           -3.9671    -3.2604     0.4644 H       
  30 H30           -2.2396    -3.0864     0.8565 H       
  31 H31           -4.2167    -1.6790     2.7160 H       
  32 H32           -4.4990    -3.8325     4.0263 H       
  33 H33           -3.6092    -4.7557     2.7007 H       
  34 H34            0.7263     0.5052    -2.0407 H       
  35 H35            4.8007     3.2722    -2.4142 H       
  36 H36            4.2006     1.7022    -4.2063 H       
  37 H37            2.1718     0.3251    -4.0199 H       
@<TRIPOS>BOND
   1    1    2 ar
   2    1   17 1
   3    1    6 ar
   4    2    3 ar
   5    2   26 1
   6    3    4 ar
   7    3   27 1
   8    4    5 ar
   9    4    7 1
  10    5    6 ar
  11    5    9 1
  12    6   28 1
  13    7    8 am
  14    7   11 1
  15    8    9 1
  16    8   10 2
  17   11   12 1
  18   11   29 1
  19   11   30 1
  20   12   13 1
  21   12   14 1
  22   12   31 1
  23   13   14 1
  24   13   32 1
  25   13   33 1
  26   14   15 1
  27   14   16 1
  28   17   18 1
  29   18   19 ar
  30   18   20 ar
  31   19   23 ar
  32   19   34 1
  33   20   21 ar
  34   20   24 1
  35   21   22 ar
  36   21   35 1
  37   22   23 ar
  38   22   36 1
  39   23   37 1
  40   24   25 3

#	End of record

