#	Name: ASD01122032
#	Creating user name:	WinNT
#	Creation time:	15. 06. 2019 18:59

#	Modifying user name:	WinNT
#	Modification time:	15. 06. 2019 18:59

#	Program:	/corina/corina34_cracker 3.40 0067  02.08.2006

@<TRIPOS>MOLECULE
ASD01122032
  43   44    0    0    0
SMALL
NO_CHARGES


@<TRIPOS>ATOM
   1 N1            -0.0622     1.2623     0.4700 N.ar    
   2 C2            -0.0286    -0.0548     0.3890 C.ar    
   3 N3             1.0968    -0.7255     0.2535 N.ar    
   4 C4             2.2603    -0.0896     0.1918 C.ar    
   5 C5             2.2787     1.3120     0.2729 C.ar    
   6 C6             1.0531     1.9836     0.4174 C.ar    
   7 N7             3.5761    -0.4789     0.0566 N.am    
   8 C8             4.3386     0.6604     0.0588 C.2     
   9 N9             3.5742     1.7036     0.1855 N.2     
  10 N10            1.0080     3.3642     0.5022 N.pl3   
  11 P11            8.3138    -0.8340    -1.4402 P.3     
  12 O12            7.6484    -1.8323    -2.4477 O.co2   
  13 O13            8.0395    -1.3117     0.0264 O.co2   
  14 O14            9.8591    -0.7883    -1.6941 O.co2   
  15 O15            5.2012    -1.9498    -0.2605 O.2     
  16 C16            4.0283    -1.7435    -0.0565 C.2     
  17 C17            3.0709    -2.9003     0.0715 C.3     
  18 O18            3.5380    -3.7956     1.0827 O.3     
  19 C19            2.9841    -3.6407    -1.2646 C.3     
  20 O20            2.4389    -2.7694    -2.2574 O.3     
  21 C21            2.0816    -4.8665    -1.1107 C.3     
  22 O22            2.6268    -5.7378    -0.1179 O.3     
  23 C23            1.9948    -5.6069    -2.4468 C.3     
  24 O24            1.0617    -6.6835    -2.3351 O.3     
  25 C25            5.8399     0.6975    -0.0675 C.3     
  26 O26            6.1997     0.7886    -1.4475 O.3     
  27 C27            7.6092     0.8303    -1.6791 C.3     
  28 H28           -0.9582    -0.6027     0.4360 H       
  29 H29            1.8288     3.8796     0.4620 H       
  30 H30            0.1557     3.8164     0.6019 H       
  31 H31            2.0841    -2.5267     0.3447 H       
  32 H32            4.4128    -4.1675     0.9051 H       
  33 H33            3.9811    -3.9594    -1.5688 H       
  34 H34            1.5838    -2.3865    -2.0180 H       
  35 H35            1.0846    -4.5478    -0.8065 H       
  36 H36            3.5147    -6.0612    -0.3232 H       
  37 H37            1.6629    -4.9176    -3.2233 H       
  38 H38            2.9764    -6.0025    -2.7075 H       
  39 H39            0.9557    -7.1979    -3.1470 H       
  40 H40            6.2281     1.5644     0.4672 H       
  41 H41            6.2630    -0.2119     0.3591 H       
  42 H42            8.0722     1.5249    -0.9781 H       
  43 H43            7.8001     1.1626    -2.6995 H       
@<TRIPOS>BOND
   1    1    2 ar
   2    1    6 ar
   3    2    3 ar
   4    2   28 1
   5    3    4 ar
   6    4    5 ar
   7    4    7 1
   8    5    6 ar
   9    5    9 1
  10    6   10 1
  11    7    8 1
  12    7   16 am
  13    8    9 2
  14    8   25 1
  15   10   29 1
  16   10   30 1
  17   11   12 ar
  18   11   13 ar
  19   11   14 ar
  20   11   27 1
  21   15   16 2
  22   16   17 1
  23   17   18 1
  24   17   19 1
  25   17   31 1
  26   18   32 1
  27   19   20 1
  28   19   21 1
  29   19   33 1
  30   20   34 1
  31   21   22 1
  32   21   23 1
  33   21   35 1
  34   22   36 1
  35   23   24 1
  36   23   37 1
  37   23   38 1
  38   24   39 1
  39   25   26 1
  40   25   40 1
  41   25   41 1
  42   26   27 1
  43   27   42 1
  44   27   43 1

#	End of record

