#	Name: ASD01811115
#	Creating user name:	WinNT
#	Creation time:	15. 06. 2019 19:26

#	Modifying user name:	WinNT
#	Modification time:	15. 06. 2019 19:26

#	Program:	/corina/corina34_cracker 3.40 0067  02.08.2006

@<TRIPOS>MOLECULE
ASD01811115
  47   50    0    0    0
SMALL
NO_CHARGES


@<TRIPOS>ATOM
   1 C1            -0.0169     1.3972     0.0097 C.2     
   2 C2             0.0021    -0.0041     0.0020 C.2     
   3 C3             1.1986    -0.6593    -0.0129 C.2     
   4 C4             2.3918     0.0821    -0.0204 C.2     
   5 N5             2.3437     1.4497    -0.0122 N.am    
   6 C6             1.1421     2.0937     0.0024 C.2     
   7 C7             3.6227    -0.5889    -0.0356 C.2     
   8 C8             4.7877     0.1218    -0.0425 C.2     
   9 C9             4.7345     1.5280    -0.0346 C.2     
  10 C10            3.4812     2.1736    -0.0189 C.2     
  11 O11            3.4258     3.3917    -0.0123 O.2     
  12 C12            5.9703     2.3140    -0.0413 C.2     
  13 O13            5.9124     3.6618    -0.0337 O.3     
  14 O14            7.0487     1.7516    -0.0537 O.2     
  15 C15            3.6593    -2.0954    -0.0439 C.3     
  16 N16            3.7787    -2.5747    -1.4274 N.3     
  17 C17            4.0554    -4.0197    -1.4629 C.3     
  18 C18            3.8055    -4.5266    -2.8835 C.3     
  19 C19            4.5330    -3.6563    -3.8761 C.ar    
  20 C20            5.0032    -2.4060    -3.5342 C.ar    
  21 C21            4.8226    -1.8406    -2.1496 C.3     
  22 C22            4.7256    -4.1392    -5.1608 C.ar    
  23 C23            5.3871    -3.3709    -6.1047 C.ar    
  24 C24            5.8571    -2.1117    -5.7596 C.ar    
  25 C25            5.6645    -1.6351    -4.4799 C.ar    
  26 O26            5.5752    -3.8483    -7.3631 O.3     
  27 C27            6.2657    -2.9997    -8.2825 C.3     
  28 H28           -0.9605     1.9226     0.0170 H       
  29 H29           -0.9233    -0.5609     0.0082 H       
  30 H30            1.2282    -1.7389    -0.0187 H       
  31 H31            1.1156     3.1733     0.0087 H       
  32 H32            5.7393    -0.3889    -0.0536 H       
  33 H33            6.7544     4.1373    -0.0385 H       
  34 H34            4.5153    -2.4412     0.5356 H       
  35 H35            2.7412    -2.4836     0.3971 H       
  36 H36            5.0942    -4.2006    -1.1869 H       
  37 H37            3.3935    -4.5365    -0.7680 H       
  38 H38            4.1646    -5.5521    -2.9702 H       
  39 H39            2.7365    -4.5002    -3.0944 H       
  40 H40            4.5397    -0.7905    -2.2233 H       
  41 H41            5.7621    -1.9199    -1.6027 H       
  42 H42            4.3586    -5.1194    -5.4271 H       
  43 H43            6.3724    -1.5068    -6.4910 H       
  44 H44            6.0304    -0.6549    -4.2120 H       
  45 H45            5.7129    -2.0680    -8.4023 H       
  46 H46            7.2629    -2.7838    -7.8990 H       
  47 H47            6.3479    -3.5001    -9.2473 H       
@<TRIPOS>BOND
   1    1    2 1
   2    1    6 2
   3    1   28 1
   4    2    3 2
   5    2   29 1
   6    3    4 1
   7    3   30 1
   8    4    5 1
   9    4    7 2
  10    5    6 1
  11    5   10 am
  12    6   31 1
  13    7    8 1
  14    7   15 1
  15    8    9 2
  16    8   32 1
  17    9   10 1
  18    9   12 1
  19   10   11 2
  20   12   13 1
  21   12   14 2
  22   13   33 1
  23   15   16 1
  24   15   34 1
  25   15   35 1
  26   16   17 1
  27   16   21 1
  28   17   18 1
  29   17   36 1
  30   17   37 1
  31   18   19 1
  32   18   38 1
  33   18   39 1
  34   19   20 ar
  35   19   22 ar
  36   20   21 1
  37   20   25 ar
  38   21   40 1
  39   21   41 1
  40   22   23 ar
  41   22   42 1
  42   23   24 ar
  43   23   26 1
  44   24   25 ar
  45   24   43 1
  46   25   44 1
  47   26   27 1
  48   27   45 1
  49   27   46 1
  50   27   47 1

#	End of record

