#	Name: ASD01881391
#	Creating user name:	WinNT
#	Creation time:	15. 06. 2019 19:42

#	Modifying user name:	WinNT
#	Modification time:	15. 06. 2019 19:42

#	Program:	/corina/corina34_cracker 3.40 0067  02.08.2006

@<TRIPOS>MOLECULE
ASD01881391
  38   41    0    0    0
SMALL
NO_CHARGES


@<TRIPOS>ATOM
   1 N1            -0.0165     1.3640     0.0095 N.pl3   
   2 C2             0.0021    -0.0041     0.0020 C.2     
   3 C3             1.2701    -0.4444    -0.0124 C.2     
   4 C4             2.1343     0.7384    -0.0143 C.ar    
   5 C5             3.5175     0.9296    -0.0269 C.ar    
   6 C6             4.0271     2.1980    -0.0253 C.ar    
   7 C7             3.1795     3.2985    -0.0109 C.ar    
   8 C8             1.8123     3.1318     0.0021 C.ar    
   9 C9             1.2722     1.8497    -0.0002 C.ar    
  10 O10           -5.3315     3.2536     0.0471 O.3     
  11 C11           -6.3773     2.4466    -0.5254 C.3     
  12 C12           -5.7096     1.0905    -0.8442 C.3     
  13 O13           -4.5563     1.0825     0.0328 O.3     
  14 C14           -4.1364     2.4604     0.0372 C.3     
  15 C15           -3.3211     2.7555    -1.2193 C.3     
  16 C16           -2.0609     1.8869    -1.2266 C.3     
  17 C17           -1.2269     2.1893     0.0200 C.3     
  18 C18           -2.0472     1.8752     1.2727 C.3     
  19 C19           -3.3075     2.7437     1.2874 C.3     
  20 Br20           5.9002     2.4566    -0.0424 Br      
  21 H21           -0.8737    -0.6360     0.0075 H       
  22 H22            1.5921    -1.4753    -0.0205 H       
  23 H23            4.1822     0.0784    -0.0375 H       
  24 H24            3.5968     4.2946    -0.0095 H       
  25 H25            1.1617     3.9937     0.0140 H       
  26 H26           -7.1864     2.3107     0.1923 H       
  27 H27           -6.7538     2.9071    -1.4387 H       
  28 H28           -6.3805     0.2650    -0.6065 H       
  29 H29           -5.4003     1.0491    -1.8885 H       
  30 H30           -3.9207     2.5331    -2.1019 H       
  31 H31           -3.0369     3.8078    -1.2291 H       
  32 H32           -2.3448     0.8345    -1.2274 H       
  33 H33           -1.4738     2.1057    -2.1185 H       
  34 H34           -0.9480     3.2430     0.0235 H       
  35 H35           -2.3311     0.8228     1.2668 H       
  36 H36           -1.4504     2.0858     2.1602 H       
  37 H37           -3.0233     3.7959     1.3041 H       
  38 H38           -3.8974     2.5128     2.1743 H       
@<TRIPOS>BOND
   1    1    2 1
   2    1    9 1
   3    1   17 1
   4    2    3 2
   5    2   21 1
   6    3    4 1
   7    3   22 1
   8    4    5 ar
   9    4    9 ar
  10    5    6 ar
  11    5   23 1
  12    6    7 ar
  13    6   20 1
  14    7    8 ar
  15    7   24 1
  16    8    9 ar
  17    8   25 1
  18   10   11 1
  19   10   14 1
  20   11   12 1
  21   11   26 1
  22   11   27 1
  23   12   13 1
  24   12   28 1
  25   12   29 1
  26   13   14 1
  27   14   15 1
  28   14   19 1
  29   15   16 1
  30   15   30 1
  31   15   31 1
  32   16   17 1
  33   16   32 1
  34   16   33 1
  35   17   18 1
  36   17   34 1
  37   18   19 1
  38   18   35 1
  39   18   36 1
  40   19   37 1
  41   19   38 1

#	End of record

