#	Name: ASD03331032
#	Creating user name:	WinNT
#	Creation time:	15. 06. 2019 20:38

#	Modifying user name:	WinNT
#	Modification time:	15. 06. 2019 20:38

#	Program:	/corina/corina34_cracker 3.40 0067  02.08.2006

@<TRIPOS>MOLECULE
ASD03331032
  56   59    0    0    0
SMALL
NO_CHARGES


@<TRIPOS>ATOM
   1 N1             0.0146     1.3074    -0.0356 N.pl3   
   2 C2            -0.0404    -0.0509     0.0039 C.2     
   3 C3             1.1475    -0.9772     0.0217 C.3     
   4 N4             2.1153    -0.5009     1.0223 N.3     
   5 C5             3.0560     0.4560     0.4366 C.3     
   6 C6             2.3794     1.2957    -0.6430 C.3     
   7 C7             1.2398     2.1118    -0.0269 C.3     
   8 C8            -1.2696     1.7674    -0.0720 C.2     
   9 N9            -2.0841     0.7387    -0.0380 N.2     
  10 C10           -1.3566    -0.3990     0.0119 C.2     
  11 C11           -1.8919    -1.7707     0.0651 C.2     
  12 O12           -1.1374    -2.7214    -0.0130 O.2     
  13 N13           -3.2177    -1.9719     0.2004 N.am    
  14 C14            2.8270    -1.6259     1.6434 C.3     
  15 C15           -4.1206    -0.8382     0.4373 C.3     
  16 C16           -1.6757     3.1877    -0.1380 C.ar    
  17 C17           -2.6100     3.6066    -1.0895 C.ar    
  18 C18           -2.9858     4.9349    -1.1460 C.ar    
  19 C19           -2.4379     5.8501    -0.2622 C.ar    
  20 C20           -1.5102     5.4391     0.6833 C.ar    
  21 C21           -1.1320     4.1136     0.7529 C.ar    
  22 F22           -2.8084     7.1479    -0.3218 F       
  23 F23           -3.1440     2.7147    -1.9523 F       
  24 Cl24          -0.8280     6.5934     1.7861 Cl      
  25 C25           -5.1752    -0.8058    -0.6763 C.3     
  26 C26           -5.7650    -2.1919    -0.8167 C.2     
  27 C27           -4.8217    -3.3590    -1.0092 C.3     
  28 C28           -3.7768    -3.3267     0.1066 C.3     
  29 C29           -5.5941    -4.6514    -0.9466 C.2     
  30 O30           -6.5805    -4.8871    -1.8259 O.3     
  31 O31           -5.3256    -5.4756    -0.1048 O.2     
  32 C32           -7.2818    -6.1529    -1.7063 C.3     
  33 O33           -6.9598    -2.3627    -0.7757 O.2     
  34 H34            0.8205    -1.9840     0.2814 H       
  35 H35            1.6161    -0.9876    -0.9624 H       
  36 H36            3.4311     1.1146     1.2200 H       
  37 H37            3.8920    -0.0875    -0.0038 H       
  38 H38            3.1100     1.9716    -1.0874 H       
  39 H39            1.9785     0.6388    -1.4149 H       
  40 H40            1.0842     3.0190    -0.6106 H       
  41 H41            1.4946     2.3766     0.9993 H       
  42 H42            3.3635    -2.1845     0.8764 H       
  43 H43            3.5360    -1.2458     2.3788 H       
  44 H44            2.1096    -2.2823     2.1358 H       
  45 H45           -4.6123    -0.9581     1.4027 H       
  46 H46           -3.5508     0.0909     0.4280 H       
  47 H47           -3.7076     5.2603    -1.8805 H       
  48 H48           -0.4131     3.7943     1.4930 H       
  49 H49           -5.9614    -0.0970    -0.4166 H       
  50 H50           -4.7082    -0.5088    -1.6153 H       
  51 H51           -4.3254    -3.2740    -1.9760 H       
  52 H52           -2.9807    -4.0367    -0.1176 H       
  53 H53           -4.2464    -3.5885     1.0547 H       
  54 H54           -7.7448    -6.2201    -0.7219 H       
  55 H55           -8.0519    -6.2156    -2.4751 H       
  56 H56           -6.5750    -6.9731    -1.8323 H       
@<TRIPOS>BOND
   1    1    2 1
   2    1    7 1
   3    1    8 1
   4    2    3 1
   5    2   10 2
   6    3    4 1
   7    3   34 1
   8    3   35 1
   9    4    5 1
  10    4   14 1
  11    5    6 1
  12    5   36 1
  13    5   37 1
  14    6    7 1
  15    6   38 1
  16    6   39 1
  17    7   40 1
  18    7   41 1
  19    8    9 2
  20    8   16 1
  21    9   10 1
  22   10   11 1
  23   11   12 2
  24   11   13 am
  25   13   15 1
  26   13   28 1
  27   14   42 1
  28   14   43 1
  29   14   44 1
  30   15   25 1
  31   15   45 1
  32   15   46 1
  33   16   17 ar
  34   16   21 ar
  35   17   18 ar
  36   17   23 1
  37   18   19 ar
  38   18   47 1
  39   19   20 ar
  40   19   22 1
  41   20   21 ar
  42   20   24 1
  43   21   48 1
  44   25   26 1
  45   25   49 1
  46   25   50 1
  47   26   27 1
  48   26   33 2
  49   27   28 1
  50   27   29 1
  51   27   51 1
  52   28   52 1
  53   28   53 1
  54   29   30 1
  55   29   31 2
  56   30   32 1
  57   32   54 1
  58   32   55 1
  59   32   56 1

#	End of record

