#	Name: ASD03240453
#	Creating user name:	WinNT
#	Creation time:	15. 06. 2019 20:35

#	Modifying user name:	WinNT
#	Modification time:	15. 06. 2019 20:35

#	Program:	/corina/corina34_cracker 3.40 0067  02.08.2006

@<TRIPOS>MOLECULE
ASD03240453
  39   41    0    0    0
SMALL
NO_CHARGES


@<TRIPOS>ATOM
   1 C1             0.0330     1.4783    -0.0440 C.ar    
   2 C2            -2.3567     2.4357     2.2798 C.ar    
   3 C3            -1.4715     2.8757     1.3124 C.ar    
   4 C4            -1.3321     2.1135     0.0198 C.3     
   5 C5            -2.4882     3.1300     3.4655 C.ar    
   6 C6            -1.7276     4.2759     3.6867 C.ar    
   7 C7            -0.8380     4.7150     2.7088 C.ar    
   8 C8            -0.7142     4.0131     1.5268 C.ar    
   9 C9            -1.8653     5.0271     4.9600 C.2     
  10 C10           -1.1861     6.1586     5.3060 C.2     
  11 N11           -1.5997     6.5225     6.5366 N.pl3   
  12 N12           -2.5581     5.5972     6.9674 N.2     
  13 C13           -2.7253     4.7046     6.0278 C.2     
  14 C14           -1.5037     3.0733    -1.1593 C.3     
  15 C15           -1.4869     2.2931    -2.4485 C.2     
  16 N16           -1.6229     2.9345    -3.6261 N.am    
  17 C17            0.1588     0.1031     0.0210 C.ar    
  18 C18            1.1581     2.2707    -0.1734 C.ar    
  19 C19            2.4106     1.6890    -0.2378 C.ar    
  20 C20            2.5383     0.3134    -0.1729 C.ar    
  21 C21            1.4110    -0.4805    -0.0433 C.ar    
  22 Cl22           4.1108    -0.4176    -0.2543 Cl      
  23 Cl23           1.5697    -2.2073     0.0390 Cl      
  24 O24           -1.3510     1.0882    -2.4265 O.2     
  25 H25           -2.9492     1.5497     2.1054 H       
  26 H26           -2.0964     1.3379    -0.0288 H       
  27 H27           -3.1799     2.7858     4.2201 H       
  28 H28           -0.2460     5.6027     2.8754 H       
  29 H29           -0.0245     4.3524     0.7681 H       
  30 H30           -0.4503     6.6703     4.7033 H       
  31 H31           -1.2870     7.2922     7.0372 H       
  32 H32           -3.4001     3.8623     6.0662 H       
  33 H33           -2.4541     3.5986    -1.0648 H       
  34 H34           -0.6878     3.7960    -1.1612 H       
  35 H35           -1.7315     3.8982    -3.6437 H       
  36 H36           -1.6120     2.4324    -4.4559 H       
  37 H37           -0.7207    -0.5154     0.1224 H       
  38 H38            1.0587     3.3449    -0.2245 H       
  39 H39            3.2893     2.3087    -0.3392 H       
@<TRIPOS>BOND
   1    1   17 ar
   2    1   18 ar
   3    1    4 1
   4    2    3 ar
   5    2    5 ar
   6    2   25 1
   7    3    4 1
   8    3    8 ar
   9    4   14 1
  10    4   26 1
  11    5    6 ar
  12    5   27 1
  13    6    7 ar
  14    6    9 1
  15    7    8 ar
  16    7   28 1
  17    8   29 1
  18    9   10 2
  19    9   13 1
  20   10   11 1
  21   10   30 1
  22   11   12 1
  23   11   31 1
  24   12   13 2
  25   13   32 1
  26   14   15 1
  27   14   33 1
  28   14   34 1
  29   15   16 am
  30   15   24 2
  31   16   35 1
  32   16   36 1
  33   17   21 ar
  34   17   37 1
  35   18   19 ar
  36   18   38 1
  37   19   20 ar
  38   19   39 1
  39   20   21 ar
  40   20   22 1
  41   21   23 1

#	End of record

