#	Name: ASD01100007
#	Creating user name:	WinNT
#	Creation time:	15. 06. 2019 18:58

#	Modifying user name:	WinNT
#	Modification time:	15. 06. 2019 18:58

#	Program:	/corina/corina34_cracker 3.40 0067  02.08.2006

@<TRIPOS>MOLECULE
ASD01100007
  34   35    0    0    0
SMALL
NO_CHARGES


@<TRIPOS>ATOM
   1 C1            -0.0167     1.3793     0.0096 C.ar    
   2 C2             0.0021    -0.0041     0.0020 C.ar    
   3 C3             1.2098    -0.6789    -0.0131 C.ar    
   4 C4             2.3967     0.0292    -0.0207 C.ar    
   5 C5             2.3773     1.4115    -0.0131 C.ar    
   6 C6             1.1709     2.0863     0.0021 C.ar    
   7 C7             3.6719     2.1830    -0.0208 C.3     
   8 N8             3.5416     3.3466    -0.9012 N.am    
   9 C9             4.6376     3.8889    -1.4680 C.2     
  10 C10            3.9948     2.6516     1.3994 C.3     
  11 C11            5.3090     3.4348     1.3916 C.3     
  12 C12            2.8673     3.5522     1.9080 C.3     
  13 Cl13          -1.4892    -0.8928     0.0121 Cl      
  14 C14            4.5067     5.0585    -2.3529 C.2     
  15 N15            5.4913     5.6677    -2.9563 N.2     
  16 C16            5.1600     6.6900    -3.7004 C.2     
  17 C17            3.8499     6.9788    -3.7460 C.2     
  18 S18            2.9958     5.8584    -2.7755 S.3     
  19 O19            5.7347     3.4122    -1.2485 O.2     
  20 H20           -0.9592     1.9066     0.0170 H       
  21 H21            1.2250    -1.7588    -0.0187 H       
  22 H22            3.3395    -0.4974    -0.0321 H       
  23 H23            1.1564     3.1662     0.0080 H       
  24 H24            4.4751     1.5413    -0.3831 H       
  25 H25            2.6666     3.7268    -1.0762 H       
  26 H26            4.0917     1.7858     2.0545 H       
  27 H27            5.2121     4.3006     0.7365 H       
  28 H28            5.5391     3.7687     2.4034 H       
  29 H29            6.1122     2.7932     1.0293 H       
  30 H30            1.9310     2.9942     1.9136 H       
  31 H31            3.0974     3.8861     2.9198 H       
  32 H32            2.7704     4.4180     1.2529 H       
  33 H33            5.8942     7.2661    -4.2439 H       
  34 H34            3.4058     7.7866    -4.3086 H       
@<TRIPOS>BOND
   1    1    2 ar
   2    1    6 ar
   3    1   20 1
   4    2    3 ar
   5    2   13 1
   6    3    4 ar
   7    3   21 1
   8    4    5 ar
   9    4   22 1
  10    5    6 ar
  11    5    7 1
  12    6   23 1
  13    7    8 1
  14    7   10 1
  15    7   24 1
  16    8    9 am
  17    8   25 1
  18    9   14 1
  19    9   19 2
  20   10   11 1
  21   10   12 1
  22   10   26 1
  23   11   27 1
  24   11   28 1
  25   11   29 1
  26   12   30 1
  27   12   31 1
  28   12   32 1
  29   14   15 2
  30   14   18 1
  31   15   16 1
  32   16   17 2
  33   16   33 1
  34   17   18 1
  35   17   34 1

#	End of record

