#	Name: ASD01811401
#	Creating user name:	WinNT
#	Creation time:	15. 06. 2019 19:26

#	Modifying user name:	WinNT
#	Modification time:	15. 06. 2019 19:26

#	Program:	/corina/corina34_cracker 3.40 0067  02.08.2006

@<TRIPOS>MOLECULE
ASD01811401
  33   33    0    0    0
SMALL
NO_CHARGES


@<TRIPOS>ATOM
   1 N1            -0.0169     1.3964     0.0097 N.pl3   
   2 N2             0.0021    -0.0041     0.0020 N.2     
   3 C3             1.2603    -0.4003    -0.0121 C.2     
   4 C4             2.0802     0.7475    -0.0138 C.2     
   5 C5             1.2696     1.8362    -0.0002 C.2     
   6 C6             1.7283    -1.8000    -0.0234 C.2     
   7 O7             2.9187    -2.0424    -0.0357 O.2     
   8 O8             0.8354    -2.8089    -0.0200 O.3     
   9 C9            -1.2144     2.2403     0.0202 C.3     
  10 N10            1.6829     3.1690     0.0026 N.am    
  11 C11            2.9973     3.4669    -0.0083 C.2     
  12 O12            3.8229     2.5744    -0.0206 O.2     
  13 N13            3.3965     4.7542    -0.0056 N.am    
  14 C14            4.8252     5.0781    -0.0174 C.3     
  15 C15            5.0037     6.5977    -0.0115 C.3     
  16 C16            6.4915     6.9359     0.1019 C.3     
  17 C17            4.4455     7.1818    -1.3107 C.3     
  18 H18            3.1601     0.7582    -0.0235 H       
  19 H19            1.1897    -3.7087    -0.0277 H       
  20 H20           -1.5060     2.4444     1.0505 H       
  21 H21           -1.0013     3.1797    -0.4900 H       
  22 H22           -2.0267     1.7247    -0.4920 H       
  23 H23            1.0243     3.8810     0.0124 H       
  24 H24            2.7378     5.4662     0.0042 H       
  25 H25            5.3015     4.6529     0.8660 H       
  26 H26            5.2847     4.6618    -0.9139 H       
  27 H27            4.4687     7.0230     0.8376 H       
  28 H28            7.0266     6.5106    -0.7471 H       
  29 H29            6.6187     8.0185     0.1061 H       
  30 H30            6.8892     6.5197     1.0275 H       
  31 H31            4.5726     8.2644    -1.3065 H       
  32 H32            4.9805     6.7565    -2.1598 H       
  33 H33            3.3855     6.9408    -1.3915 H       
@<TRIPOS>BOND
   1    1    2 1
   2    1    5 1
   3    1    9 1
   4    2    3 2
   5    3    4 1
   6    3    6 1
   7    4    5 2
   8    4   18 1
   9    5   10 1
  10    6    7 2
  11    6    8 1
  12    8   19 1
  13    9   20 1
  14    9   21 1
  15    9   22 1
  16   10   11 am
  17   10   23 1
  18   11   12 2
  19   11   13 am
  20   13   14 1
  21   13   24 1
  22   14   15 1
  23   14   25 1
  24   14   26 1
  25   15   16 1
  26   15   17 1
  27   15   27 1
  28   16   28 1
  29   16   29 1
  30   16   30 1
  31   17   31 1
  32   17   32 1
  33   17   33 1

#	End of record

