#	Name: ASD01820051
#	Creating user name:	WinNT
#	Creation time:	15. 06. 2019 19:36

#	Modifying user name:	WinNT
#	Modification time:	15. 06. 2019 19:36

#	Program:	/corina/corina34_cracker 3.40 0067  02.08.2006

@<TRIPOS>MOLECULE
ASD01820051
  93   96    0    0    0
SMALL
NO_CHARGES


@<TRIPOS>ATOM
   1 N1             0.7896     0.6811    -1.4171 N.am    
   2 C2             0.7541    -0.7675    -1.2015 C.3     
   3 C3            -0.0539    -1.0756     0.0607 C.3     
   4 C4            -0.0909    -2.5885     0.2859 C.3     
   5 N5            -0.3488    -2.8661     1.7052 N.4     
   6 C6            -0.5645    -4.3073     1.8909 C.3     
   7 C7            -0.8331    -4.5964     3.3692 C.3     
   8 C8            -1.0578    -6.0974     3.5626 C.3     
   9 C9            -1.3264    -6.3866     5.0408 C.3     
  10 C10           -1.5511    -7.8876     5.2343 C.3     
  11 C11           -1.8197    -8.1767     6.7125 C.3     
  12 C12            0.8056    -2.4366     2.5058 C.3     
  13 C13           -1.5453    -2.1321     2.1382 C.3     
  14 N14           -2.0354    -9.6178     6.8982 N.4     
  15 C15           -2.2933    -9.8955     8.3175 C.3     
  16 C16           -2.5180   -11.3965     8.5110 C.3     
  17 C17           -2.7865   -11.6856     9.9892 C.3     
  18 N18           -3.0017   -13.1228    10.1744 N.am    
  19 C19           -3.1898   -10.0473     6.0977 C.3     
  20 C20           -0.8389   -10.3519     6.4652 C.3     
  21 C21           -2.0265   -14.0104    10.4406 C.2     
  22 C22           -2.6317   -15.3538    10.5589 C.ar    
  23 C23           -4.0130   -15.1748    10.3433 C.ar    
  24 C24           -4.2013   -13.7279    10.1064 C.2     
  25 C25           -2.1331   -16.6205    10.8171 C.ar    
  26 C26           -2.9973   -17.7034    10.8614 C.ar    
  27 C27           -4.3519   -17.5279    10.6495 C.ar    
  28 C28           -4.8650   -16.2665    10.3906 C.ar    
  29 O29           -5.2606   -13.1784     9.8813 O.2     
  30 O30           -0.8462   -13.7514    10.5626 O.2     
  31 C31            1.7328     1.5017    -0.9206 C.2     
  32 C32            1.4303     2.8827    -1.3522 C.ar    
  33 C33            0.2553     2.7963    -2.1258 C.ar    
  34 C34           -0.1136     1.3650    -2.1426 C.2     
  35 C35            2.0343     4.1136    -1.1516 C.ar    
  36 C36            1.4779     5.2518    -1.7138 C.ar    
  37 C37            0.3253     5.1671    -2.4721 C.ar    
  38 C38           -0.2898     3.9427    -2.6814 C.ar    
  39 O39            2.6752     1.1644    -0.2327 O.2     
  40 O40           -1.0748     0.8873    -2.7107 O.2     
  41 C41            2.1338     6.5910    -1.4963 C.3     
  42 C42            0.6022    -0.3967     1.2646 C.3     
  43 C43           -1.4810    -0.5498    -0.1063 C.3     
  44 H44            0.2867    -1.2512    -2.0592 H       
  45 H45            1.7708    -1.1422    -1.0825 H       
  46 H46           -0.8840    -3.0267    -0.3200 H       
  47 H47            0.8671    -3.0221    -0.0009 H       
  48 H48           -1.4211    -4.6260     1.2969 H       
  49 H49            0.3233    -4.8519     1.5696 H       
  50 H50            0.0234    -4.2777     3.9632 H       
  51 H51           -1.7209    -4.0518     3.6904 H       
  52 H52           -1.9144    -6.4161     2.9686 H       
  53 H53           -0.1700    -6.6421     3.2413 H       
  54 H54           -0.4698    -6.0679     5.6348 H       
  55 H55           -2.2142    -5.8419     5.3621 H       
  56 H56           -2.4076    -8.2062     4.6403 H       
  57 H57           -0.6633    -8.4322     4.9130 H       
  58 H58           -0.9631    -7.8580     7.3065 H       
  59 H59           -2.7075    -7.6320     7.0338 H       
  60 H60            0.6708    -1.3987     2.8100 H       
  61 H61            0.8884    -3.0670     3.3911 H       
  62 H62            1.7141    -2.5256     1.9101 H       
  63 H63           -2.2754    -2.1177     1.3290 H       
  64 H64           -1.9780    -2.6241     3.0093 H       
  65 H65           -1.2703    -1.1097     2.3976 H       
  66 H66           -1.4367    -9.5768     8.9115 H       
  67 H67           -3.1811    -9.3508     8.6388 H       
  68 H68           -3.3745   -11.7151     7.9169 H       
  69 H69           -1.6302   -11.9411     8.1897 H       
  70 H70           -1.9300   -11.3669    10.5832 H       
  71 H71           -3.6744   -11.1409    10.3105 H       
  72 H72           -2.9985    -9.8413     5.0445 H       
  73 H73           -3.3499   -11.1167     6.2355 H       
  74 H74           -4.0776    -9.5027     6.4190 H       
  75 H75            0.0177   -10.0332     7.0592 H       
  76 H76           -0.9990   -11.4212     6.6030 H       
  77 H77           -0.6476   -10.1459     5.4121 H       
  78 H78           -1.0755   -16.7637    10.9828 H       
  79 H79           -2.6095   -18.6911    11.0626 H       
  80 H80           -5.0151   -18.3795    10.6858 H       
  81 H81           -5.9243   -16.1354    10.2257 H       
  82 H82            2.9346     4.1858    -0.5594 H       
  83 H83           -0.0991     6.0613    -2.9044 H       
  84 H84           -1.1898     3.8824    -3.2754 H       
  85 H85            2.8589     6.7735    -2.2894 H       
  86 H86            1.3752     7.3737    -1.5105 H       
  87 H87            2.6416     6.5946    -0.5318 H       
  88 H88            0.7946     0.6504     1.0310 H       
  89 H89           -0.0637    -0.4606     2.1252 H       
  90 H90            1.5431    -0.8963     1.4954 H       
  91 H91           -2.0182    -1.1765    -0.8181 H       
  92 H92           -1.9918    -0.5733     0.8563 H       
  93 H93           -1.4496     0.4751    -0.4761 H       
@<TRIPOS>BOND
   1    1    2 1
   2    1   31 am
   3    1   34 am
   4    2    3 1
   5    2   44 1
   6    2   45 1
   7    3    4 1
   8    3   42 1
   9    3   43 1
  10    4    5 1
  11    4   46 1
  12    4   47 1
  13    5    6 1
  14    5   12 1
  15    5   13 1
  16    6    7 1
  17    6   48 1
  18    6   49 1
  19    7    8 1
  20    7   50 1
  21    7   51 1
  22    8    9 1
  23    8   52 1
  24    8   53 1
  25    9   10 1
  26    9   54 1
  27    9   55 1
  28   10   11 1
  29   10   56 1
  30   10   57 1
  31   11   14 1
  32   11   58 1
  33   11   59 1
  34   12   60 1
  35   12   61 1
  36   12   62 1
  37   13   63 1
  38   13   64 1
  39   13   65 1
  40   14   15 1
  41   14   19 1
  42   14   20 1
  43   15   16 1
  44   15   66 1
  45   15   67 1
  46   16   17 1
  47   16   68 1
  48   16   69 1
  49   17   18 1
  50   17   70 1
  51   17   71 1
  52   18   21 am
  53   18   24 am
  54   19   72 1
  55   19   73 1
  56   19   74 1
  57   20   75 1
  58   20   76 1
  59   20   77 1
  60   21   22 1
  61   21   30 2
  62   22   23 ar
  63   22   25 ar
  64   23   24 1
  65   23   28 ar
  66   24   29 2
  67   25   26 ar
  68   25   78 1
  69   26   27 ar
  70   26   79 1
  71   27   28 ar
  72   27   80 1
  73   28   81 1
  74   31   32 1
  75   31   39 2
  76   32   33 ar
  77   32   35 ar
  78   33   34 1
  79   33   38 ar
  80   34   40 2
  81   35   36 ar
  82   35   82 1
  83   36   37 ar
  84   36   41 1
  85   37   38 ar
  86   37   83 1
  87   38   84 1
  88   41   85 1
  89   41   86 1
  90   41   87 1
  91   42   88 1
  92   42   89 1
  93   42   90 1
  94   43   91 1
  95   43   92 1
  96   43   93 1

#	End of record

