#	Name: ASD00170414
#	Creating user name:	WinNT
#	Creation time:	15. 06. 2019 18:32

#	Modifying user name:	WinNT
#	Modification time:	15. 06. 2019 18:32

#	Program:	/corina/corina34_cracker 3.40 0067  02.08.2006

@<TRIPOS>MOLECULE
ASD00170414
  70   74    0    0    0
SMALL
NO_CHARGES


@<TRIPOS>ATOM
   1 C1            -4.2603    -1.1395    -1.1944 C.2     
   2 C2            -3.2335    -1.3796    -0.3078 C.2     
   3 C3            -2.4469    -2.5373    -0.6624 C.2     
   4 C4            -2.8761    -3.1391    -1.7786 C.2     
   5 S5            -4.2740    -2.3070    -2.4356 S.3     
   6 C6            -1.2654    -3.0179     0.1401 C.3     
   7 C7            -2.2597    -4.3434    -2.3733 C.ar    
   8 C8            -0.8774    -4.4076    -2.5526 C.ar    
   9 C9            -0.3079    -5.5351    -3.1081 C.ar    
  10 C10           -1.1033    -6.6014    -3.4875 C.ar    
  11 C11           -2.4749    -6.5464    -3.3134 C.ar    
  12 C12           -3.0583    -5.4262    -2.7538 C.ar    
  13 N13           -5.1584    -0.0993    -1.0885 N.pl3   
  14 C14           -2.9680    -0.5495     0.8679 C.2     
  15 C15           -2.0132     0.5759     0.7780 C.ar    
  16 O16           -3.5335    -0.7856     1.9202 O.2     
  17 C17           -1.8397     1.4362     1.8638 C.ar    
  18 C18           -0.9478     2.4841     1.7740 C.ar    
  19 C19           -0.2251     2.6841     0.6094 C.ar    
  20 C20           -0.3929     1.8339    -0.4711 C.ar    
  21 C21           -1.2773     0.7789    -0.3910 C.ar    
  22 Cl22           0.8951     4.0061     0.5034 Cl      
  23 N23           -1.6952    -3.3190     1.5121 N.3     
  24 C24           -2.3562    -4.6290     1.5812 C.3     
  25 C25           -3.7269    -4.5448     0.9067 C.3     
  26 C26           -4.4155    -5.9092     0.9787 C.3     
  27 C27           -3.5569    -6.9523     0.2605 C.3     
  28 C28           -2.1861    -7.0365     0.9350 C.3     
  29 C29           -1.4976    -5.6720     0.8631 C.3     
  30 C30           -0.5628    -3.2508     2.4454 C.3     
  31 C31           -0.0260    -1.8189     2.4923 C.3     
  32 C32            1.1534    -1.7479     3.4644 C.3     
  33 C33            0.6886    -2.1643     4.8614 C.3     
  34 C34            0.1519    -3.5963     4.8145 C.3     
  35 C35           -1.0275    -3.6673     3.8424 C.3     
  36 F36           -4.3975    -5.3731    -2.5836 F       
  37 H37           -0.8567    -3.9184    -0.3185 H       
  38 H38           -0.5004    -2.2417     0.1610 H       
  39 H39           -0.2544    -3.5762    -2.2575 H       
  40 H40            0.7619    -5.5851    -3.2473 H       
  41 H41           -0.6516    -7.4810    -3.9220 H       
  42 H42           -3.0901    -7.3824    -3.6118 H       
  43 H43           -5.1380     0.4820    -0.3122 H       
  44 H44           -5.8108     0.0515    -1.7903 H       
  45 H45           -2.4032     1.2817     2.7721 H       
  46 H46           -0.8127     3.1503     2.6132 H       
  47 H47            0.1734     1.9948    -1.3766 H       
  48 H48           -1.4070     0.1164    -1.2340 H       
  49 H49           -2.4819    -4.9180     2.6247 H       
  50 H50           -4.3386    -3.8017     1.4183 H       
  51 H51           -3.6013    -4.2558    -0.1368 H       
  52 H52           -4.5411    -6.1982     2.0221 H       
  53 H53           -5.3920    -5.8492     0.4981 H       
  54 H54           -4.0474    -7.9243     0.3118 H       
  55 H55           -3.4312    -6.6633    -0.7830 H       
  56 H56           -2.3118    -7.3254     1.9785 H       
  57 H57           -1.5745    -7.7796     0.4234 H       
  58 H58           -1.3720    -5.3831    -0.1804 H       
  59 H59           -0.5211    -5.7320     1.3436 H       
  60 H60            0.2261    -3.9237     2.1093 H       
  61 H61            0.3051    -1.5222     1.4971 H       
  62 H62           -0.8149    -1.1459     2.8285 H       
  63 H63            1.9422    -2.4208     3.1283 H       
  64 H64            1.5358    -0.7277     3.4978 H       
  65 H65            1.5289    -2.1138     5.5539 H       
  66 H66           -0.1002    -1.4914     5.1975 H       
  67 H67            0.9407    -4.2692     4.4784 H       
  68 H68           -0.1792    -3.8930     5.8097 H       
  69 H69           -1.8164    -2.9944     4.1785 H       
  70 H70           -1.4099    -4.6875     3.8090 H       
@<TRIPOS>BOND
   1    1    2 2
   2    1   13 1
   3    1    5 1
   4    2    3 1
   5    2   14 1
   6    3    4 2
   7    3    6 1
   8    4    5 1
   9    4    7 1
  10    6   23 1
  11    6   37 1
  12    6   38 1
  13    7    8 ar
  14    7   12 ar
  15    8    9 ar
  16    8   39 1
  17    9   10 ar
  18    9   40 1
  19   10   11 ar
  20   10   41 1
  21   11   12 ar
  22   11   42 1
  23   12   36 1
  24   13   43 1
  25   13   44 1
  26   14   15 1
  27   14   16 2
  28   15   17 ar
  29   15   21 ar
  30   17   18 ar
  31   17   45 1
  32   18   19 ar
  33   18   46 1
  34   19   20 ar
  35   19   22 1
  36   20   21 ar
  37   20   47 1
  38   21   48 1
  39   23   24 1
  40   23   30 1
  41   24   25 1
  42   24   29 1
  43   24   49 1
  44   25   26 1
  45   25   50 1
  46   25   51 1
  47   26   27 1
  48   26   52 1
  49   26   53 1
  50   27   28 1
  51   27   54 1
  52   27   55 1
  53   28   29 1
  54   28   56 1
  55   28   57 1
  56   29   58 1
  57   29   59 1
  58   30   31 1
  59   30   35 1
  60   30   60 1
  61   31   32 1
  62   31   61 1
  63   31   62 1
  64   32   33 1
  65   32   63 1
  66   32   64 1
  67   33   34 1
  68   33   65 1
  69   33   66 1
  70   34   35 1
  71   34   67 1
  72   34   68 1
  73   35   69 1
  74   35   70 1

#	End of record

