#	Name: ASD01190093
#	Creating user name:	WinNT
#	Creation time:	15. 06. 2019 19:07

#	Modifying user name:	WinNT
#	Modification time:	15. 06. 2019 19:07

#	Program:	/corina/corina34_cracker 3.40 0067  02.08.2006

@<TRIPOS>MOLECULE
ASD01190093
  56   60    0    0    0
SMALL
NO_CHARGES


@<TRIPOS>ATOM
   1 C1            -0.9547    -1.2726     0.1787 C.2     
   2 C2             0.2069    -0.4967     0.7440 C.3     
   3 O3            -0.8911    -1.7279    -0.9436 O.2     
   4 N4            -2.0621    -1.4654     0.9223 N.am    
   5 C5            -3.1914    -2.2196     0.3728 C.3     
   6 N6             1.2817    -0.4334    -0.2495 N.pl3   
   7 C7             2.3452    -1.2924    -0.3131 C.2     
   8 C8             3.1435    -0.9570    -1.3388 C.2     
   9 C9             2.5422     0.2123    -1.9849 C.ar    
  10 C10            2.8942     1.0038    -3.0801 C.ar    
  11 C11            2.0994     2.0546    -3.4411 C.ar    
  12 C12            0.9430     2.3424    -2.7273 C.ar    
  13 C13            0.5772     1.5739    -1.6432 C.ar    
  14 C14            1.3692     0.4955    -1.2620 C.ar    
  15 C15            4.4171    -1.6511    -1.7476 C.3     
  16 C16            4.7013    -2.8047    -0.7836 C.3     
  17 O17            4.2760    -2.1628    -3.0743 O.3     
  18 N18            8.7467     1.9344    -1.8403 N.pl3   
  19 N19            9.2354     1.6495    -3.1196 N.2     
  20 C20            8.5047     0.7298    -3.6834 C.2     
  21 C21            7.4521     0.3570    -2.7436 C.ar    
  22 C22            6.3913    -0.5547    -2.7829 C.ar    
  23 C23            5.5597    -0.6692    -1.7067 C.ar    
  24 C24            5.7562     0.1112    -0.5740 C.ar    
  25 C25            6.7846     1.0085    -0.5123 C.ar    
  26 C26            7.6494     1.1470    -1.5944 C.ar    
  27 C27            9.2928     2.8688    -0.9507 C.ar    
  28 C28           10.6668     3.0650    -0.9053 C.ar    
  29 C29           11.2031     3.9865    -0.0276 C.ar    
  30 C30           10.3717     4.7147     0.8068 C.ar    
  31 C31            9.0012     4.5206     0.7631 C.ar    
  32 C32            8.4604     3.6042    -0.1172 C.ar    
  33 F33           10.8983     5.6154     1.6651 F       
  34 F34            3.6407    -3.7162    -0.8215 F       
  35 F35            5.8837    -3.4490    -1.1631 F       
  36 F36            4.8395    -2.3037     0.5153 F       
  37 Br37          -0.1394     3.8031    -3.2475 Br      
  38 H38           -0.1177     0.5136     0.9930 H       
  39 H39            0.5721    -0.9929     1.6432 H       
  40 H40           -2.1114    -1.1047     1.8214 H       
  41 H41           -3.5597    -1.7208    -0.5237 H       
  42 H42           -2.8656    -3.2284     0.1193 H       
  43 H43           -3.9891    -2.2709     1.1138 H       
  44 H44            2.5168    -2.1178     0.3619 H       
  45 H45            3.7920     0.7862    -3.6395 H       
  46 H46            2.3725     2.6666    -4.2881 H       
  47 H47           -0.3237     1.8053    -1.0943 H       
  48 H48            4.0940    -1.4853    -3.7399 H       
  49 H49            8.6515     0.3170    -4.6706 H       
  50 H50            6.2314    -1.1644    -3.6599 H       
  51 H51            5.0876     0.0075     0.2678 H       
  52 H52            6.9261     1.6094     0.3739 H       
  53 H53           11.3155     2.4970    -1.5556 H       
  54 H54           12.2716     4.1391     0.0083 H       
  55 H55            8.3545     5.0893     1.4149 H       
  56 H56            7.3912     3.4565    -0.1544 H       
@<TRIPOS>BOND
   1    1    2 1
   2    1    3 2
   3    1    4 am
   4    2    6 1
   5    2   38 1
   6    2   39 1
   7    4    5 1
   8    4   40 1
   9    5   41 1
  10    5   42 1
  11    5   43 1
  12    6    7 1
  13    6   14 1
  14    7    8 2
  15    7   44 1
  16    8    9 1
  17    8   15 1
  18    9   10 ar
  19    9   14 ar
  20   10   11 ar
  21   10   45 1
  22   11   12 ar
  23   11   46 1
  24   12   13 ar
  25   12   37 1
  26   13   14 ar
  27   13   47 1
  28   15   16 1
  29   15   17 1
  30   15   23 1
  31   16   34 1
  32   16   35 1
  33   16   36 1
  34   17   48 1
  35   18   19 1
  36   18   26 1
  37   18   27 1
  38   19   20 2
  39   20   21 1
  40   20   49 1
  41   21   22 ar
  42   21   26 ar
  43   22   23 ar
  44   22   50 1
  45   23   24 ar
  46   24   25 ar
  47   24   51 1
  48   25   26 ar
  49   25   52 1
  50   27   28 ar
  51   27   32 ar
  52   28   29 ar
  53   28   53 1
  54   29   30 ar
  55   29   54 1
  56   30   31 ar
  57   30   33 1
  58   31   32 ar
  59   31   55 1
  60   32   56 1

#	End of record

