#	Name: ASD01916037
#	Creating user name:	WinNT
#	Creation time:	15. 06. 2019 20:06

#	Modifying user name:	WinNT
#	Modification time:	15. 06. 2019 20:06

#	Program:	/corina/corina34_cracker 3.40 0067  02.08.2006

@<TRIPOS>MOLECULE
ASD01916037
  42   43    0    0    0
SMALL
NO_CHARGES


@<TRIPOS>ATOM
   1 C1            -0.1275     1.1333    -1.0070 C.ar    
   2 C2            -0.1360    -0.2319    -0.6874 C.ar    
   3 C3            -1.3489    -0.8346    -0.4165 C.ar    
   4 C4            -2.5161    -0.0714    -0.4694 C.ar    
   5 C5            -3.8188    -0.7095    -0.1801 C.2     
   6 N6            -4.9350     0.0419    -0.1032 N.am    
   7 O7            -3.8826    -1.9116    -0.0117 O.2     
   8 C8             1.1042     1.8040    -1.2963 C.1     
   9 C9             2.1140     2.3538    -1.5335 C.1     
  10 C10            3.3458     3.0244    -1.8228 C.ar    
  11 C11            3.3464     4.3854    -2.1406 C.ar    
  12 C12            5.7367     2.9756    -2.0631 C.ar    
  13 C13            4.5364     5.0252    -2.4182 C.ar    
  14 N14           -2.4731     1.2209    -0.7758 N.ar    
  15 C15           -1.3426     1.8306    -1.0450 C.ar    
  16 C16            4.5537     2.3223    -1.7830 C.ar    
  17 C17            5.7280     4.3233    -2.3833 C.ar    
  18 C18           -6.2413    -0.6013     0.0584 C.3     
  19 C19           -7.3336     0.4687     0.1109 C.3     
  20 C20           -6.4995    -1.5359    -1.1251 C.3     
  21 C21           -6.2551    -1.4084     1.3581 C.3     
  22 F22           -7.2396     1.2870    -1.0200 F       
  23 F23           -8.5893    -0.1476     0.1375 F       
  24 F24           -7.1707     1.2453     1.2632 F       
  25 Cl25           7.2379     2.1048    -2.0216 Cl      
  26 C26           -4.8420     1.5018    -0.1811 C.3     
  27 H27            0.7830    -0.7982    -0.6541 H       
  28 H28           -1.3936    -1.8845    -0.1669 H       
  29 H29            2.4170     4.9348    -2.1691 H       
  30 H30            4.5378     6.0769    -2.6639 H       
  31 H31           -1.3477     2.8825    -1.2899 H       
  32 H32            4.5613     1.2716    -1.5335 H       
  33 H33            6.6566     4.8298    -2.6016 H       
  34 H34           -5.7213    -2.2983    -1.1626 H       
  35 H35           -7.4714    -2.0145    -1.0049 H       
  36 H36           -6.4896    -0.9609    -2.0511 H       
  37 H37           -6.0712    -0.7426     2.2013 H       
  38 H38           -7.2271    -1.8870     1.4783 H       
  39 H39           -5.4770    -2.1707     1.3207 H       
  40 H40           -4.8207     1.8093    -1.2266 H       
  41 H41           -5.7063     1.9478     0.3112 H       
  42 H42           -3.9299     1.8348     0.3142 H       
@<TRIPOS>BOND
   1    1    2 ar
   2    1    8 1
   3    1   15 ar
   4    2    3 ar
   5    2   27 1
   6    3    4 ar
   7    3   28 1
   8    4   14 ar
   9    4    5 1
  10    5    6 am
  11    5    7 2
  12    6   26 1
  13    6   18 1
  14    8    9 3
  15    9   10 1
  16   10   11 ar
  17   10   16 ar
  18   11   13 ar
  19   11   29 1
  20   12   17 ar
  21   12   25 1
  22   12   16 ar
  23   13   17 ar
  24   13   30 1
  25   14   15 ar
  26   15   31 1
  27   16   32 1
  28   17   33 1
  29   18   20 1
  30   18   21 1
  31   18   19 1
  32   19   22 1
  33   19   23 1
  34   19   24 1
  35   20   34 1
  36   20   35 1
  37   20   36 1
  38   21   37 1
  39   21   38 1
  40   21   39 1
  41   26   40 1
  42   26   41 1
  43   26   42 1

#	End of record

