#	Name: ASD00842193
#	Creating user name:	WinNT
#	Creation time:	15. 06. 2019 18:43

#	Modifying user name:	WinNT
#	Modification time:	15. 06. 2019 18:43

#	Program:	/corina/corina34_cracker 3.40 0067  02.08.2006

@<TRIPOS>MOLECULE
ASD00842193
  95  100    0    0    0
SMALL
NO_CHARGES


@<TRIPOS>ATOM
   1 F1             6.0478    -1.6656    -2.0510 F       
   2 C2             0.9563     1.5340    -0.4732 C.ar    
   3 C3             1.2719     0.2004    -0.6872 C.ar    
   4 C4             1.2242    -0.6994     0.3680 C.ar    
   5 C5             0.8629    -0.2652     1.6285 C.ar    
   6 C6             0.5482     1.0648     1.8391 C.ar    
   7 C7             0.5954     1.9633     0.7896 C.ar    
   8 C8             1.5660    -2.1491     0.1390 C.3     
   9 C9             1.3202    -2.9567     1.3954 C.2     
  10 C10            0.7521    -2.7123    -1.0278 C.3     
  11 C11           -0.7159    -2.4909    -0.7693 C.2     
  12 N12           -1.6333    -2.9968    -1.6173 N.am    
  13 O13           -1.0719    -1.8576     0.2019 O.2     
  14 C14           -3.0606    -2.6945    -1.4434 C.3     
  15 C15           -3.8407    -4.0118    -1.3904 C.3     
  16 C16           -3.5209    -4.8399    -2.6371 C.3     
  17 C17           -2.0257    -5.1648    -2.6660 C.3     
  18 C18           -1.2244    -3.8560    -2.7368 C.3     
  19 N19           -4.2928    -6.0894    -2.6059 N.3     
  20 C20           -4.1022    -6.8571    -3.8444 C.3     
  21 C21           -4.8570    -8.1845    -3.7398 C.3     
  22 N22           -6.2825    -7.9171    -3.5034 N.3     
  23 C23           -6.4731    -7.1494    -2.2649 C.3     
  24 C24           -5.7184    -5.8220    -2.3695 C.3     
  25 C25           -7.0544    -9.1666    -3.4722 C.3     
  26 O26            0.2571    -3.1032     1.9606 O.2     
  27 N27            2.4999    -3.4811     1.7672 N.am    
  28 C28            3.0472    -2.3097    -0.1186 C.ar    
  29 C29            3.5349    -3.1214     0.9006 C.ar    
  30 C30            3.8811    -1.8238    -1.1014 C.ar    
  31 C31            5.2283    -2.1404    -1.0876 C.ar    
  32 C32            5.7364    -2.9552    -0.0707 C.ar    
  33 C33            4.8866    -3.4441     0.9211 C.ar    
  34 C34            2.4580    -6.1098     2.5811 C.ar    
  35 C35            3.5301    -6.8576     2.1307 C.ar    
  36 C36            1.1944    -6.6689     2.6311 C.ar    
  37 C37            1.0002    -7.9768     2.2309 C.ar    
  38 C38            2.0744    -8.7293     1.7785 C.ar    
  39 C39            3.3412    -8.1658     1.7289 C.ar    
  40 O40            1.8860   -10.0163     1.3847 O.3     
  41 H41            4.5162    -6.4186     2.0926 H       
  42 C42            3.0372   -10.7308     0.9305 C.3     
  43 C43           -8.5067    -8.8598    -3.1014 C.3     
  44 C44           -7.0089    -9.8287    -4.8507 C.3     
  45 C45            7.1290    -3.2880    -0.0484 C.1     
  46 N46            8.2337    -3.5520    -0.0307 N.1     
  47 S47            2.7036    -4.4437     3.0992 S.o2    
  48 O48            4.0718    -4.3354     3.4670 O.2     
  49 O49            1.6344    -4.1366     3.9834 O.2     
  50 O50            1.6268    -0.2244    -1.9283 O.3     
  51 C51            2.0755     0.1042    -4.2802 C.3     
  52 C52            1.5454     0.7302    -2.9886 C.3     
  53 H53            0.9970     2.2372    -1.2919 H       
  54 H54            0.8256    -0.9651     2.4501 H       
  55 H55            0.2652     1.4022     2.8253 H       
  56 H56            0.3493     3.0015     0.9566 H       
  57 H57            1.0392    -2.2055    -1.9491 H       
  58 H58            0.9470    -3.7803    -1.1247 H       
  59 H59           -3.2071    -2.1454    -0.5133 H       
  60 H60           -3.4121    -2.0951    -2.2832 H       
  61 H61           -3.5526    -4.5696    -0.4994 H       
  62 H62           -4.9095    -3.8006    -1.3583 H       
  63 H63           -3.7863    -4.2715    -3.5285 H       
  64 H64           -1.7547    -5.7118    -1.7630 H       
  65 H65           -1.8027    -5.7743    -3.5418 H       
  66 H66           -1.4274    -3.3540    -3.6828 H       
  67 H67           -0.1595    -4.0748    -2.6579 H       
  68 H68           -4.4867    -6.2858    -4.6893 H       
  69 H69           -3.0401    -7.0533    -3.9908 H       
  70 H70           -4.7409    -8.7430    -4.6686 H       
  71 H71           -4.4541    -8.7676    -2.9117 H       
  72 H72           -7.5352    -6.9532    -2.1184 H       
  73 H73           -6.0886    -7.7207    -1.4200 H       
  74 H74           -5.8344    -5.2635    -1.4407 H       
  75 H75           -6.1212    -5.2389    -3.1976 H       
  76 H76           -6.6248    -9.8407    -2.7310 H       
  77 H77            3.4829    -1.1951    -1.8841 H       
  78 H78            5.2793    -4.0733     1.7062 H       
  79 H79            0.3586    -6.0828     2.9837 H       
  80 H80            0.0131    -8.4132     2.2704 H       
  81 H81            4.1790    -8.7496     1.3775 H       
  82 H82            3.4649   -10.2201     0.0677 H       
  83 H83            3.7766   -10.7745     1.7302 H       
  84 H84            2.7482   -11.7429     0.6472 H       
  85 H85           -8.9363    -8.1858    -3.8426 H       
  86 H86           -9.0795    -9.7869    -3.0783 H       
  87 H87           -8.5391    -8.3881    -2.1193 H       
  88 H88           -5.9742   -10.0473    -5.1149 H       
  89 H89           -7.5816   -10.7559    -4.8276 H       
  90 H90           -7.4385    -9.1547    -5.5919 H       
  91 H91            3.0842    -0.2737    -4.1135 H       
  92 H92            1.4246    -0.7173    -4.5796 H       
  93 H93            2.0953     0.8576    -5.0676 H       
  94 H94            0.5067     1.0292    -3.1294 H       
  95 H95            2.1445     1.6052    -2.7365 H       
@<TRIPOS>BOND
   1    1   31 1
   2    2    3 ar
   3    2    7 ar
   4    2   53 1
   5    3    4 ar
   6    3   50 1
   7    4    5 ar
   8    4    8 1
   9    5    6 ar
  10    5   54 1
  11    6    7 ar
  12    6   55 1
  13    7   56 1
  14    8    9 1
  15    8   10 1
  16    8   28 1
  17    9   26 2
  18    9   27 am
  19   10   11 1
  20   10   57 1
  21   10   58 1
  22   11   12 am
  23   11   13 2
  24   12   14 1
  25   12   18 1
  26   14   15 1
  27   14   59 1
  28   14   60 1
  29   15   16 1
  30   15   61 1
  31   15   62 1
  32   16   17 1
  33   16   19 1
  34   16   63 1
  35   17   18 1
  36   17   64 1
  37   17   65 1
  38   18   66 1
  39   18   67 1
  40   19   20 1
  41   19   24 1
  42   20   21 1
  43   20   68 1
  44   20   69 1
  45   21   22 1
  46   21   70 1
  47   21   71 1
  48   22   23 1
  49   22   25 1
  50   23   24 1
  51   23   72 1
  52   23   73 1
  53   24   74 1
  54   24   75 1
  55   25   43 1
  56   25   44 1
  57   25   76 1
  58   27   47 am
  59   27   29 1
  60   28   29 ar
  61   28   30 ar
  62   29   33 ar
  63   30   31 ar
  64   30   77 1
  65   31   32 ar
  66   32   33 ar
  67   32   45 1
  68   33   78 1
  69   34   35 ar
  70   34   36 ar
  71   34   47 1
  72   35   41 1
  73   35   39 ar
  74   36   37 ar
  75   36   79 1
  76   37   38 ar
  77   37   80 1
  78   38   39 ar
  79   38   40 1
  80   39   81 1
  81   40   42 1
  82   42   82 1
  83   42   83 1
  84   42   84 1
  85   43   85 1
  86   43   86 1
  87   43   87 1
  88   44   88 1
  89   44   89 1
  90   44   90 1
  91   45   46 3
  92   47   48 2
  93   47   49 2
  94   50   52 1
  95   51   52 1
  96   51   91 1
  97   51   92 1
  98   51   93 1
  99   52   94 1
 100   52   95 1

#	End of record

