#	Name: ASD05170125
#	Creating user name:	WinNT
#	Creation time:	15. 06. 2019 20:57

#	Modifying user name:	WinNT
#	Modification time:	15. 06. 2019 20:57

#	Program:	/corina/corina34_cracker 3.40 0067  02.08.2006

@<TRIPOS>MOLECULE
ASD05170125
  37   39    0    0    0
SMALL
NO_CHARGES


@<TRIPOS>ATOM
   1 C1            -0.0167     1.3826     0.0096 C.ar    
   2 C2             0.0021    -0.0041     0.0020 C.ar    
   3 C3             1.2292    -0.6500    -0.0132 C.ar    
   4 N4             2.3379     0.0715    -0.0199 N.ar    
   5 C5             2.2847     1.3953    -0.0123 C.ar    
   6 N6             1.1292     2.0433     0.0023 N.ar    
   7 Br7           -1.6101    -0.9924     0.0127 Br      
   8 N8             3.4650     2.1189    -0.0192 N.3     
   9 C9             4.2681     1.8115    -1.2225 C.3     
  10 C10            5.7493     1.8851    -0.8080 C.3     
  11 C11            5.7301     2.2196     0.7012 C.3     
  12 C12            4.3186     1.7560     1.1409 C.3     
  13 N13            6.7703     1.4660     1.4140 N.3     
  14 C14            7.1689     2.1568     2.6476 C.3     
  15 C15            8.2349     1.3559     3.3499 C.ar    
  16 C16            7.8962     0.1980     4.0278 C.ar    
  17 C17            9.5513     1.7747     3.3119 C.ar    
  18 C18           10.5298     1.0402     3.9555 C.ar    
  19 C19           10.1917    -0.1146     4.6380 C.ar    
  20 C20            8.8747    -0.5373     4.6719 C.ar    
  21 Cl21           6.2434    -0.3312     4.0703 Cl      
  22 Cl22          11.4206    -1.0371     5.4458 Cl      
  23 H23           -0.9555     1.9165     0.0170 H       
  24 H24            1.2790    -1.7288    -0.0191 H       
  25 H25            4.0320     0.8094    -1.5805 H       
  26 H26            4.0639     2.5450    -2.0025 H       
  27 H27            6.2375     0.9252    -0.9765 H       
  28 H28            6.2590     2.6723    -1.3635 H       
  29 H29            5.8511     3.2911     0.8604 H       
  30 H30            3.9994     2.2905     2.0356 H       
  31 H31            4.3023     0.6791     1.3086 H       
  32 H32            6.4649     0.5244     1.6094 H       
  33 H33            7.5596     3.1442     2.4011 H       
  34 H34            6.3031     2.2615     3.3015 H       
  35 H35            9.8159     2.6760     2.7790 H       
  36 H36           11.5585     1.3678     3.9252 H       
  37 H37            8.6108    -1.4408     5.2015 H       
@<TRIPOS>BOND
   1    1    2 ar
   2    1    6 ar
   3    1   23 1
   4    2    3 ar
   5    2    7 1
   6    3    4 ar
   7    3   24 1
   8    4    5 ar
   9    5    6 ar
  10    5    8 1
  11    8    9 1
  12    8   12 1
  13    9   10 1
  14    9   25 1
  15    9   26 1
  16   10   11 1
  17   10   27 1
  18   10   28 1
  19   11   12 1
  20   11   13 1
  21   11   29 1
  22   12   30 1
  23   12   31 1
  24   13   14 1
  25   13   32 1
  26   14   15 1
  27   14   33 1
  28   14   34 1
  29   15   17 ar
  30   15   16 ar
  31   16   20 ar
  32   16   21 1
  33   17   18 ar
  34   17   35 1
  35   18   19 ar
  36   18   36 1
  37   19   20 ar
  38   19   22 1
  39   20   37 1

#	End of record

