#	Name: ASD01882489
#	Creating user name:	WinNT
#	Creation time:	15. 06. 2019 19:44

#	Modifying user name:	WinNT
#	Modification time:	15. 06. 2019 19:44

#	Program:	/corina/corina34_cracker 3.40 0067  02.08.2006

@<TRIPOS>MOLECULE
ASD01882489
  61   65    0    0    0
SMALL
NO_CHARGES


@<TRIPOS>ATOM
   1 C1            -2.3244     0.3124    -0.8120 C.2     
   2 C2            -1.9234    -0.8262    -1.5371 C.2     
   3 C3            -0.7616    -0.7886    -2.2434 C.2     
   4 C4             0.0190     0.3801    -2.2401 C.2     
   5 C5            -0.3777     1.4636    -1.5401 C.2     
   6 N6            -1.5405     1.4400    -0.8279 N.pl3   
   7 N7            -3.2778     1.7882     0.3944 N.2     
   8 N8            -3.3730     0.5854    -0.0528 N.2     
   9 C9            -2.1829     2.3511    -0.0478 C.2     
  10 C10           -2.7714    -2.0720    -1.5301 C.3     
  11 F11           -2.2230    -3.0044    -0.6430 F       
  12 F12           -4.0706    -1.7495    -1.1235 F       
  13 F13           -2.8078    -2.6185    -2.8175 F       
  14 C14           -0.3130    -1.9957    -3.0262 C.3     
  15 N15           -0.7728    -1.8766    -4.4162 N.3     
  16 C16           -0.1593    -2.9082    -5.2642 C.3     
  17 C17           -0.7231    -2.8003    -6.6829 C.3     
  18 N18           -0.4526    -1.4569    -7.2138 N.3     
  19 C19           -1.0661    -0.4253    -6.3659 C.3     
  20 C20           -0.5024    -0.5332    -4.9471 C.3     
  21 C21           -0.8908    -1.3434    -8.5383 C.ar    
  22 C22           -0.6235    -0.1860    -9.2651 C.ar    
  23 C23           -1.0600    -0.0790   -10.5768 C.ar    
  24 C24           -1.7599    -1.1219   -11.1604 C.ar    
  25 C25           -2.0252    -2.2702   -10.4382 C.ar    
  26 C26           -1.5876    -2.3861    -9.1320 C.ar    
  27 F27           -0.8031     1.0424   -11.2851 F       
  28 O28            0.0639     0.8375    -8.6893 O.3     
  29 C29            1.4856     0.8261    -8.8332 C.3     
  30 C30            2.0878     1.9874    -8.0397 C.3     
  31 C31           -1.7191     3.7536     0.2503 C.3     
  32 C32           -2.2796     4.7109    -0.8034 C.3     
  33 C33           -2.0179     6.2059    -0.6101 C.3     
  34 C34           -1.2773     5.4349    -1.7046 C.3     
  35 H35            0.9417     0.4111    -2.8006 H       
  36 H36            0.2301     2.3563    -1.5443 H       
  37 H37            0.7751    -2.0570    -3.0074 H       
  38 H38           -0.7353    -2.8959    -2.5796 H       
  39 H39            0.9206    -2.7628    -5.2899 H       
  40 H40           -0.3842    -3.8942    -4.8575 H       
  41 H41           -0.2482    -3.5458    -7.3207 H       
  42 H42           -1.7992    -2.9727    -6.6608 H       
  43 H43           -0.8412     0.5607    -6.7725 H       
  44 H44           -2.1461    -0.5707    -6.3401 H       
  45 H45           -0.9773     0.2123    -4.3094 H       
  46 H46            0.5737    -0.3609    -4.9693 H       
  47 H47           -2.0995    -1.0376   -12.1822 H       
  48 H48           -2.5719    -3.0808   -10.8969 H       
  49 H49           -1.7920    -3.2867    -8.5720 H       
  50 H50            1.8815    -0.1164    -8.4549 H       
  51 H51            1.7451     0.9325    -9.8865 H       
  52 H52            3.1723     1.9787    -8.1495 H       
  53 H53            1.6919     2.9299    -8.4180 H       
  54 H54            1.8284     1.8810    -6.9864 H       
  55 H55           -2.0736     4.0515     1.2371 H       
  56 H56           -0.6299     3.7881     0.2299 H       
  57 H57           -3.2335     4.4197    -1.2432 H       
  58 H58           -2.7994     6.8983    -0.9232 H       
  59 H59           -1.4464     6.5075     0.2677 H       
  60 H60           -0.2186     5.2291    -1.5468 H       
  61 H61           -1.5716     5.6199    -2.7377 H       
@<TRIPOS>BOND
   1    1    2 1
   2    1    6 1
   3    1    8 2
   4    2    3 2
   5    2   10 1
   6    3    4 1
   7    3   14 1
   8    4    5 2
   9    4   35 1
  10    5    6 1
  11    5   36 1
  12    6    9 1
  13    7    8 1
  14    7    9 2
  15    9   31 1
  16   10   11 1
  17   10   12 1
  18   10   13 1
  19   14   15 1
  20   14   37 1
  21   14   38 1
  22   15   16 1
  23   15   20 1
  24   16   17 1
  25   16   39 1
  26   16   40 1
  27   17   18 1
  28   17   41 1
  29   17   42 1
  30   18   19 1
  31   18   21 1
  32   19   20 1
  33   19   43 1
  34   19   44 1
  35   20   45 1
  36   20   46 1
  37   21   22 ar
  38   21   26 ar
  39   22   23 ar
  40   22   28 1
  41   23   24 ar
  42   23   27 1
  43   24   25 ar
  44   24   47 1
  45   25   26 ar
  46   25   48 1
  47   26   49 1
  48   28   29 1
  49   29   30 1
  50   29   50 1
  51   29   51 1
  52   30   52 1
  53   30   53 1
  54   30   54 1
  55   31   32 1
  56   31   55 1
  57   31   56 1
  58   32   33 1
  59   32   34 1
  60   32   57 1
  61   33   34 1
  62   33   58 1
  63   33   59 1
  64   34   60 1
  65   34   61 1

#	End of record

