#	Name: ASD01900725
#	Creating user name:	WinNT
#	Creation time:	15. 06. 2019 19:52

#	Modifying user name:	WinNT
#	Modification time:	15. 06. 2019 19:52

#	Program:	/corina/corina34_cracker 3.40 0067  02.08.2006

@<TRIPOS>MOLECULE
ASD01900725
  54   58    0    0    0
SMALL
NO_CHARGES


@<TRIPOS>ATOM
   1 C1            -0.0157     1.4040    -0.1136 C.ar    
   2 C2             0.0117     0.0195    -0.1178 C.ar    
   3 C3            -1.1601    -0.7086    -0.0670 C.ar    
   4 C4            -2.3828    -0.0531    -0.0103 C.ar    
   5 C5            -2.4058     1.3481    -0.0101 C.ar    
   6 O6            -3.5355    -0.7536     0.0514 O.3     
   7 C7            -4.7266    -0.1778    -0.1889 C.2     
   8 C8            -4.9012     1.1681    -0.2046 C.2     
   9 C9            -3.7271     2.0248     0.0375 C.2     
  10 C10           -5.8896    -1.0431    -0.4459 C.2     
  11 N11           -7.1040    -0.4928    -0.6914 N.2     
  12 C12           -8.1547    -1.2198    -0.9233 C.2     
  13 N13           -8.0909    -2.5862    -0.9316 N.pl3   
  14 C14           -6.8807    -3.2117    -0.6882 C.2     
  15 C15           -5.7431    -2.4202    -0.4429 C.2     
  16 C16           -1.2224     2.0732    -0.0541 C.ar    
  17 C17           -9.0309    -3.5485    -1.1436 C.2     
  18 C18           -8.4468    -4.7672    -1.0406 C.2     
  19 C19           -7.0919    -4.5762    -0.7540 C.2     
  20 C20            1.2738     2.1820    -0.1677 C.3     
  21 C21            1.6478     2.4485    -1.6272 C.3     
  22 C22            2.9570     3.2383    -1.6822 C.3     
  23 N23            3.3161     3.4941    -3.0834 N.3     
  24 C24            4.4319     4.4469    -3.1759 C.3     
  25 C25            4.8118     4.6385    -4.6466 C.3     
  26 O26            3.6632     5.0772    -5.3771 O.3     
  27 C27            2.5576     4.1726    -5.3092 C.3     
  28 C28            2.1549     3.9763    -3.8453 C.3     
  29 N29           -3.8419     3.3088     0.2804 N.2     
  30 O30           -2.7031     4.0637     0.6524 O.3     
  31 H31            0.9597    -0.4961    -0.1616 H       
  32 H32           -1.1257    -1.7881    -0.0718 H       
  33 H33           -5.8740     1.5992    -0.3896 H       
  34 H34           -9.1006    -0.7346    -1.1136 H       
  35 H35           -4.7828    -2.8750    -0.2497 H       
  36 H36           -1.2458     3.1529    -0.0500 H       
  37 H37          -10.0740    -3.3693    -1.3590 H       
  38 H38           -8.9418    -5.7198    -1.1593 H       
  39 H39           -6.3506    -5.3484    -0.6110 H       
  40 H40            1.1480     3.1307     0.3541 H       
  41 H41            2.0659     1.6063     0.3110 H       
  42 H42            1.7736     1.4998    -2.1490 H       
  43 H43            0.8557     3.0242    -2.1059 H       
  44 H44            2.8312     4.1870    -1.1603 H       
  45 H45            3.7491     2.6626    -1.2034 H       
  46 H46            4.1296     5.4038    -2.7504 H       
  47 H47            5.2891     4.0580    -2.6263 H       
  48 H48            5.6003     5.3869    -4.7243 H       
  49 H49            5.1650     3.6927    -5.0574 H       
  50 H50            1.7159     4.5842    -5.8662 H       
  51 H51            2.8453     3.2133    -5.7394 H       
  52 H52            1.3499     3.2439    -3.7843 H       
  53 H53            1.8162     4.9257    -3.4305 H       
  54 H54           -2.8863     4.9999     0.8106 H       
@<TRIPOS>BOND
   1    1    2 ar
   2    1   20 1
   3    1   16 ar
   4    2    3 ar
   5    2   31 1
   6    3    4 ar
   7    3   32 1
   8    4    5 ar
   9    4    6 1
  10    5   16 ar
  11    5    9 1
  12    6    7 1
  13    7    8 2
  14    7   10 1
  15    8    9 1
  16    8   33 1
  17    9   29 2
  18   10   11 1
  19   10   15 2
  20   11   12 2
  21   12   13 1
  22   12   34 1
  23   13   14 1
  24   13   17 1
  25   14   15 1
  26   14   19 2
  27   15   35 1
  28   16   36 1
  29   17   18 2
  30   17   37 1
  31   18   19 1
  32   18   38 1
  33   19   39 1
  34   20   21 1
  35   20   40 1
  36   20   41 1
  37   21   22 1
  38   21   42 1
  39   21   43 1
  40   22   23 1
  41   22   44 1
  42   22   45 1
  43   23   24 1
  44   23   28 1
  45   24   25 1
  46   24   46 1
  47   24   47 1
  48   25   26 1
  49   25   48 1
  50   25   49 1
  51   26   27 1
  52   27   28 1
  53   27   50 1
  54   27   51 1
  55   28   52 1
  56   28   53 1
  57   29   30 1
  58   30   54 1

#	End of record

