#	Name: ASD03930139
#	Creating user name:	WinNT
#	Creation time:	15. 06. 2019 20:47

#	Modifying user name:	WinNT
#	Modification time:	15. 06. 2019 20:47

#	Program:	/corina/corina34_cracker 3.40 0067  02.08.2006

@<TRIPOS>MOLECULE
ASD03930139
  33   34    0    0    0
SMALL
NO_CHARGES


@<TRIPOS>ATOM
   1 C1            -3.4561     1.1095     1.4128 C.3     
   2 C2            -2.9826    -0.3449     1.4504 C.3     
   3 C3            -4.1862    -1.2772     1.2983 C.3     
   4 S4            -1.8164    -0.6365     0.0919 S.o2    
   5 O5            -2.4777    -0.5407    -1.1622 O.2     
   6 O6            -0.5934     0.0470     0.3293 O.2     
   7 N7            -1.4208    -2.2391     0.2237 N.am    
   8 C8            -1.1649    -4.1326     1.8002 C.3     
   9 C9            -0.6913    -2.7192     1.3999 C.3     
  10 C10            0.7975    -2.9512     1.0652 C.3     
  11 C11            1.2034    -4.1595     1.8816 C.ar    
  12 C12            2.4600    -4.6279     2.2270 C.ar    
  13 C13            2.5897    -5.7713     2.9922 C.ar    
  14 C14            1.4609    -6.4504     3.4147 C.ar    
  15 C15            0.2074    -5.9842     3.0708 C.ar    
  16 C16            0.0759    -4.8383     2.3039 C.ar    
  17 Br17           4.3078    -6.4072     3.4607 Br      
  18 H18           -4.1569     1.2847     2.2291 H       
  19 H19           -2.5987     1.7737     1.5211 H       
  20 H20           -3.9502     1.3062     0.4613 H       
  21 H21           -2.4886    -0.5416     2.4019 H       
  22 H22           -3.8411    -2.3095     1.2404 H       
  23 H23           -4.8458    -1.1623     2.1585 H       
  24 H24           -4.7291    -1.0240     0.3877 H       
  25 H25           -1.6721    -2.8600    -0.4779 H       
  26 H26           -1.9124    -4.0711     2.5911 H       
  27 H27           -1.5716    -4.6546     0.9341 H       
  28 H28           -0.7974    -2.0245     2.2332 H       
  29 H29            0.9186    -3.1554     0.0014 H       
  30 H30            1.3899    -2.0830     1.3543 H       
  31 H31            3.3414    -4.0982     1.8971 H       
  32 H32            1.5599    -7.3444     4.0125 H       
  33 H33           -0.6734    -6.5148     3.4010 H       
@<TRIPOS>BOND
   1    1    2 1
   2    1   18 1
   3    1   19 1
   4    1   20 1
   5    2    3 1
   6    2    4 1
   7    2   21 1
   8    3   22 1
   9    3   23 1
  10    3   24 1
  11    4    5 2
  12    4    6 2
  13    4    7 am
  14    7    9 1
  15    7   25 1
  16    8    9 1
  17    8   16 1
  18    8   26 1
  19    8   27 1
  20    9   10 1
  21    9   28 1
  22   10   11 1
  23   10   29 1
  24   10   30 1
  25   11   12 ar
  26   11   16 ar
  27   12   13 ar
  28   12   31 1
  29   13   14 ar
  30   13   17 1
  31   14   15 ar
  32   14   32 1
  33   15   16 ar
  34   15   33 1

#	End of record

