#	Name: ASD01881085
#	Creating user name:	WinNT
#	Creation time:	15. 06. 2019 19:42

#	Modifying user name:	WinNT
#	Modification time:	15. 06. 2019 19:42

#	Program:	/corina/corina34_cracker 3.40 0067  02.08.2006

@<TRIPOS>MOLECULE
ASD01881085
  47   50    0    0    0
SMALL
NO_CHARGES


@<TRIPOS>ATOM
   1 C1             0.6079     0.5584     0.1156 C.ar    
   2 C2             0.3352    -0.7096    -0.4096 C.ar    
   3 C3             1.3347    -1.4416    -1.0397 C.ar    
   4 C4             2.6137    -0.9005    -1.1445 C.ar    
   5 C5             2.8789     0.3832    -0.6103 C.ar    
   6 C6             1.8584     1.1002     0.0191 C.ar    
   7 C7             3.7086    -1.6227    -1.7963 C.2     
   8 C8             4.9224    -1.0537    -1.8690 C.2     
   9 N9             5.1818     0.1846    -1.3547 N.am    
  10 C10            4.2364     0.9210    -0.7384 C.2     
  11 C11            6.5354     0.7314    -1.4770 C.3     
  12 C12            6.6506     1.5208    -2.7825 C.3     
  13 C13            8.0643     2.0918    -2.9101 C.3     
  14 O14            4.5072     2.0216    -0.2922 O.2     
  15 Cl15           2.1779     2.6752     0.6756 Cl      
  16 C16           -1.0298    -1.2766    -0.2928 C.ar    
  17 C17           -2.0372    -0.5480     0.3384 C.ar    
  18 C18           -3.3056    -1.0776     0.4452 C.ar    
  19 C19           -3.5803    -2.3358    -0.0748 C.ar    
  20 C20           -2.5790    -3.0639    -0.7041 C.ar    
  21 C21           -1.3101    -2.5371    -0.8189 C.ar    
  22 O22           -4.8307    -2.8554     0.0326 O.3     
  23 C23           -5.1115    -3.6212     1.1175 C.ar    
  24 C24           -4.1807    -3.7772     2.1418 C.ar    
  25 C25           -4.5041    -4.5641     3.2280 C.ar    
  26 N26           -5.6770    -5.1641     3.3029 N.ar    
  27 C27           -6.5847    -5.0407     2.3531 C.ar    
  28 C28           -6.3400    -4.2667     1.2375 C.ar    
  29 H29           -0.1801     1.1169     0.5987 H       
  30 H30            1.1217    -2.4203    -1.4435 H       
  31 H31            3.5411    -2.6043    -2.2143 H       
  32 H32            5.7228    -1.5950    -2.3514 H       
  33 H33            6.7380     1.3919    -0.6339 H       
  34 H34            7.2579    -0.0848    -1.4809 H       
  35 H35            6.4480     0.8603    -3.6256 H       
  36 H36            5.9281     2.3370    -2.7785 H       
  37 H37            8.2669     2.7523    -2.0670 H       
  38 H38            8.7868     1.2757    -2.9141 H       
  39 H39            8.1464     2.6542    -3.8402 H       
  40 H40           -1.8241     0.4302     0.7436 H       
  41 H41           -4.0863    -0.5137     0.9340 H       
  42 H42           -2.7954    -4.0422    -1.1072 H       
  43 H43           -0.5318    -3.1038    -1.3084 H       
  44 H44           -3.2188    -3.2891     2.0865 H       
  45 H45           -3.7883    -4.6908     4.0267 H       
  46 H46           -7.5327    -5.5486     2.4522 H       
  47 H47           -7.0872    -4.1696     0.4639 H       
@<TRIPOS>BOND
   1    1    2 ar
   2    1    6 ar
   3    1   29 1
   4    2    3 ar
   5    2   16 1
   6    3    4 ar
   7    3   30 1
   8    4    5 ar
   9    4    7 1
  10    5    6 ar
  11    5   10 1
  12    6   15 1
  13    7    8 2
  14    7   31 1
  15    8    9 1
  16    8   32 1
  17    9   10 am
  18    9   11 1
  19   10   14 2
  20   11   12 1
  21   11   33 1
  22   11   34 1
  23   12   13 1
  24   12   35 1
  25   12   36 1
  26   13   37 1
  27   13   38 1
  28   13   39 1
  29   16   17 ar
  30   16   21 ar
  31   17   18 ar
  32   17   40 1
  33   18   19 ar
  34   18   41 1
  35   19   20 ar
  36   19   22 1
  37   20   21 ar
  38   20   42 1
  39   21   43 1
  40   22   23 1
  41   23   24 ar
  42   23   28 ar
  43   24   25 ar
  44   24   44 1
  45   25   26 ar
  46   25   45 1
  47   26   27 ar
  48   27   28 ar
  49   27   46 1
  50   28   47 1

#	End of record

