#	Name: ASD01000116
#	Creating user name:	WinNT
#	Creation time:	15. 06. 2019 18:54

#	Modifying user name:	WinNT
#	Modification time:	15. 06. 2019 18:54

#	Program:	/corina/corina34_cracker 3.40 0067  02.08.2006

@<TRIPOS>MOLECULE
ASD01000116
  35   37    0    0    0
SMALL
NO_CHARGES


@<TRIPOS>ATOM
   1 C1            -0.0166     1.3751     0.0096 C.ar    
   2 C2             0.0021    -0.0041     0.0020 C.ar    
   3 C3             1.2079    -0.6936    -0.0129 C.ar    
   4 C4             2.3932     0.0063    -0.0266 C.ar    
   5 C5             2.3723     1.3952    -0.0161 C.ar    
   6 C6             1.1740     2.0780     0.0020 C.ar    
   7 C7             1.1553    -2.1990    -0.0048 C.3     
   8 C8             2.4915    -2.7856    -0.4556 C.3     
   9 C9             3.6087    -2.1351     0.3685 C.3     
  10 C10            3.7364    -0.6748    -0.0604 C.3     
  11 O11            4.8420    -2.8163     0.1295 O.3     
  12 C12            6.2086     1.8117     1.2787 C.ar    
  13 C13            5.3398     1.1539     0.4172 C.ar    
  14 N14            4.6522     0.0177     0.8496 N.pl3   
  15 C15            6.8866     2.9352     0.8480 C.ar    
  16 C16            6.7014     3.4054    -0.4392 C.ar    
  17 C17            5.8373     2.7529    -1.2994 C.ar    
  18 C18            5.1562     1.6290    -0.8752 C.ar    
  19 H19           -0.9581     1.9042     0.0169 H       
  20 H20           -0.9284    -0.5523     0.0081 H       
  21 H21            3.3020     1.9448    -0.0218 H       
  22 H22            1.1658     3.1579     0.0098 H       
  23 H23            0.9329    -2.5454     1.0044 H       
  24 H24            0.3690    -2.5348    -0.6809 H       
  25 H25            2.4936    -3.8630    -0.2908 H       
  26 H26            2.6462    -2.5755    -1.5140 H       
  27 H27            3.3601    -2.1860     1.4285 H       
  28 H28            4.1361    -0.6313    -1.0735 H       
  29 H29            4.8253    -3.7541     0.3650 H       
  30 H30            6.3503     1.4476     2.2855 H       
  31 H31            4.7810    -0.3129     1.7523 H       
  32 H32            7.5619     3.4473     1.5174 H       
  33 H33            7.2329     4.2842    -0.7734 H       
  34 H34            5.6947     3.1230    -2.3039 H       
  35 H35            4.4817     1.1197    -1.5477 H       
@<TRIPOS>BOND
   1    1    2 ar
   2    1    6 ar
   3    1   19 1
   4    2    3 ar
   5    2   20 1
   6    3    4 ar
   7    3    7 1
   8    4    5 ar
   9    4   10 1
  10    5    6 ar
  11    5   21 1
  12    6   22 1
  13    7    8 1
  14    7   23 1
  15    7   24 1
  16    8    9 1
  17    8   25 1
  18    8   26 1
  19    9   10 1
  20    9   11 1
  21    9   27 1
  22   10   14 1
  23   10   28 1
  24   11   29 1
  25   12   13 ar
  26   12   15 ar
  27   12   30 1
  28   13   14 1
  29   13   18 ar
  30   14   31 1
  31   15   16 ar
  32   15   32 1
  33   16   17 ar
  34   16   33 1
  35   17   18 ar
  36   17   34 1
  37   18   35 1

#	End of record

