#	Name: ASD01811268
#	Creating user name:	WinNT
#	Creation time:	15. 06. 2019 19:26

#	Modifying user name:	WinNT
#	Modification time:	15. 06. 2019 19:26

#	Program:	/corina/corina34_cracker 3.40 0067  02.08.2006

@<TRIPOS>MOLECULE
ASD01811268
  65   69    0    0    0
SMALL
NO_CHARGES


@<TRIPOS>ATOM
   1 C1            -8.7026     2.3609    -3.3466 C.1     
   2 C2            -7.9314     3.5382    -3.0825 C.ar    
   3 C3            -8.0980     4.6776    -3.8724 C.ar    
   4 C4            -7.3517     5.8083    -3.6125 C.ar    
   5 C5            -6.4394     5.8149    -2.5723 C.ar    
   6 C6            -6.2689     4.6893    -1.7860 C.ar    
   7 C7            -7.0134     3.5540    -2.0305 C.ar    
   8 N8            -9.3145     1.4270    -3.5560 N.1     
   9 N9            -3.6960     8.5575    -0.8774 N.am    
  10 C10           -5.1156     8.8238    -0.6082 C.3     
  11 C11           -5.9163     7.5452    -0.8746 C.3     
  12 C12           -5.6273     7.0537    -2.2948 C.3     
  13 C13           -4.1381     6.7281    -2.4306 C.3     
  14 C14           -3.3173     7.9974    -2.1819 C.3     
  15 C15           -2.7584     8.8270     0.0525 C.2     
  16 C16           -3.1379     9.5061     1.3099 C.ar    
  17 C17           -2.5830     9.0932     2.5236 C.ar    
  18 C18           -2.9363     9.7262     3.6986 C.ar    
  19 C19           -3.8400    10.7703     3.6830 C.ar    
  20 C20           -4.4024    11.1932     2.4764 C.ar    
  21 C21           -4.0453    10.5627     1.2861 C.ar    
  22 O22           -1.6008     8.5118    -0.1425 O.2     
  23 C23           -5.3695    12.3111     2.4614 C.2     
  24 N24           -5.7095    12.9235     3.6129 N.am    
  25 O25           -5.8582    12.6781     1.4105 O.2     
  26 C26           -6.5400    14.0517     3.5876 C.ar    
  27 C27           -7.4229    14.2965     4.6281 C.ar    
  28 N28           -8.2083    15.3569     4.6114 N.ar    
  29 C29           -8.1864    16.2227     3.6107 C.ar    
  30 C30           -7.3261    16.0418     2.5324 C.ar    
  31 C31           -6.4846    14.9450     2.5185 C.ar    
  32 N32           -9.0341    17.3267     3.6371 N.3     
  33 C33           -9.8588    17.3305     4.8593 C.3     
  34 C34           -9.6004    18.6699     5.5809 C.3     
  35 C35           -9.0812    19.5862     4.4418 C.3     
  36 C36           -8.2639    18.5875     3.5849 C.3     
  37 H37           -8.8093     4.6735    -4.6851 H       
  38 H38           -7.4795     6.6902    -4.2226 H       
  39 H39           -5.5547     4.7011    -0.9758 H       
  40 H40           -6.8828     2.6776    -1.4129 H       
  41 H41           -5.2403     9.1229     0.4325 H       
  42 H42           -5.4689     9.6195    -1.2641 H       
  43 H43           -5.6250     6.7776    -0.1576 H       
  44 H44           -6.9810     7.7546    -0.7717 H       
  45 H45           -5.8955     7.8314    -3.0098 H       
  46 H46           -3.8636     5.9682    -1.6990 H       
  47 H47           -3.9372     6.3560    -3.4352 H       
  48 H48           -3.5239     8.7257    -2.9661 H       
  49 H49           -2.2554     7.7513    -2.1795 H       
  50 H50           -1.8762     8.2768     2.5429 H       
  51 H51           -2.5043     9.4031     4.6342 H       
  52 H52           -4.1127    11.2608     4.6057 H       
  53 H53           -4.4738    10.8887     0.3499 H       
  54 H54           -5.3793    12.5832     4.4590 H       
  55 H55           -7.4688    13.6113     5.4617 H       
  56 H56           -7.3126    16.7517     1.7186 H       
  57 H57           -5.8063    14.7793     1.6945 H       
  58 H58          -10.9132    17.2488     4.5954 H       
  59 H59           -9.5702    16.5003     5.5039 H       
  60 H60          -10.5247    19.0651     6.0025 H       
  61 H61           -8.8425    18.5505     6.3552 H       
  62 H62           -9.9091    20.0051     3.8697 H       
  63 H63           -8.4423    20.3761     4.8366 H       
  64 H64           -7.2716    18.4440     4.0126 H       
  65 H65           -8.1873    18.9432     2.5574 H       
@<TRIPOS>BOND
   1    1    2 1
   2    1    8 3
   3    2    3 ar
   4    2    7 ar
   5    3    4 ar
   6    3   37 1
   7    4    5 ar
   8    4   38 1
   9    5    6 ar
  10    5   12 1
  11    6    7 ar
  12    6   39 1
  13    7   40 1
  14    9   10 1
  15    9   14 1
  16    9   15 am
  17   10   11 1
  18   10   41 1
  19   10   42 1
  20   11   12 1
  21   11   43 1
  22   11   44 1
  23   12   13 1
  24   12   45 1
  25   13   14 1
  26   13   46 1
  27   13   47 1
  28   14   48 1
  29   14   49 1
  30   15   16 1
  31   15   22 2
  32   16   17 ar
  33   16   21 ar
  34   17   18 ar
  35   17   50 1
  36   18   19 ar
  37   18   51 1
  38   19   20 ar
  39   19   52 1
  40   20   21 ar
  41   20   23 1
  42   21   53 1
  43   23   24 am
  44   23   25 2
  45   24   26 1
  46   24   54 1
  47   26   27 ar
  48   26   31 ar
  49   27   28 ar
  50   27   55 1
  51   28   29 ar
  52   29   30 ar
  53   29   32 1
  54   30   31 ar
  55   30   56 1
  56   31   57 1
  57   32   33 1
  58   32   36 1
  59   33   34 1
  60   33   58 1
  61   33   59 1
  62   34   35 1
  63   34   60 1
  64   34   61 1
  65   35   36 1
  66   35   62 1
  67   35   63 1
  68   36   64 1
  69   36   65 1

#	End of record

