#	Name: ASD01883565
#	Creating user name:	WinNT
#	Creation time:	15. 06. 2019 19:46

#	Modifying user name:	WinNT
#	Modification time:	15. 06. 2019 19:46

#	Program:	/corina/corina34_cracker 3.40 0067  02.08.2006

@<TRIPOS>MOLECULE
ASD01883565
  51   54    0    0    0
SMALL
NO_CHARGES


@<TRIPOS>ATOM
   1 C1            -0.0162     1.3453     0.0094 C.2     
   2 C2             0.0021    -0.0041     0.0020 C.2     
   3 N3             1.1772    -0.6879    -0.0124 N.am    
   4 C4             2.3585    -0.0433    -0.0198 C.2     
   5 C5             2.3962     1.3583    -0.0126 C.2     
   6 C6             1.2013     2.0642     0.0017 C.2     
   7 C7             1.1570    -2.1527    -0.0196 C.3     
   8 O8             3.4001    -0.6806    -0.0323 O.2     
   9 Cl9            3.9153     2.1985    -0.0214 Cl      
  10 C10            1.2014     3.5445     0.0091 C.ar    
  11 C11            1.7022     4.2489    -1.0867 C.ar    
  12 C12            1.7013     5.6265    -1.0772 C.ar    
  13 C13            1.2023     6.3153     0.0233 C.ar    
  14 C14            0.7029     5.6154     1.1172 C.ar    
  15 C15            0.6955     4.2382     1.1099 C.ar    
  16 C16            1.1364    -2.6554    -1.4645 C.3     
  17 N17            1.2029     7.7087     0.0305 N.pl3   
  18 C18            1.7289     8.4470    -1.1204 C.3     
  19 C19            1.0871     9.8368    -1.1744 C.3     
  20 C20            1.7000    10.6286    -2.3325 C.3     
  21 O21            3.1158    10.7095    -2.1559 O.3     
  22 C22            3.7757     9.4420    -2.1451 C.3     
  23 C23            3.2462     8.6024    -0.9795 C.3     
  24 C24            1.2319    -4.1659    -1.6885 C.3     
  25 C25           -0.0947    -3.4402    -1.9221 C.3     
  26 C26            0.1635     6.3649     2.3081 C.3     
  27 F27           -0.2776     5.4525     3.2726 F       
  28 F28            1.1735     7.1660     2.8515 F       
  29 F29           -0.9061     7.1719     1.9058 F       
  30 H30           -0.9578     1.8743     0.0168 H       
  31 H31           -0.9304    -0.5488     0.0080 H       
  32 H32            2.0466    -2.5309     0.4840 H       
  33 H33            0.2669    -2.5064     0.5008 H       
  34 H34            2.0904     3.7145    -1.9411 H       
  35 H35            2.0887     6.1721    -1.9250 H       
  36 H36            0.3077     3.6953     1.9592 H       
  37 H37            1.6202    -2.0068    -2.1949 H       
  38 H38            0.8551     8.1899     0.7976 H       
  39 H39            1.5002     7.9038    -2.0374 H       
  40 H40            0.0130     9.7362    -1.3302 H       
  41 H41            1.2727    10.3604    -0.2366 H       
  42 H42            1.4792    10.1255    -3.2739 H       
  43 H43            1.2778    11.6334    -2.3494 H       
  44 H44            3.5821     8.9234    -3.0840 H       
  45 H45            4.8489     9.5919    -2.0270 H       
  46 H46            3.4754     9.1011    -0.0378 H       
  47 H47            3.7162     7.6191    -0.9958 H       
  48 H48            1.7781    -4.5111    -2.5663 H       
  49 H49            1.3093    -4.8016    -0.8064 H       
  50 H50           -0.8900    -3.5984    -1.1937 H       
  51 H51           -0.4211    -3.3079    -2.9536 H       
@<TRIPOS>BOND
   1    1    2 2
   2    1    6 1
   3    1   30 1
   4    2    3 1
   5    2   31 1
   6    3    4 am
   7    3    7 1
   8    4    5 1
   9    4    8 2
  10    5    6 2
  11    5    9 1
  12    6   10 1
  13    7   16 1
  14    7   32 1
  15    7   33 1
  16   10   11 ar
  17   10   15 ar
  18   11   12 ar
  19   11   34 1
  20   12   13 ar
  21   12   35 1
  22   13   14 ar
  23   13   17 1
  24   14   15 ar
  25   14   26 1
  26   15   36 1
  27   16   24 1
  28   16   25 1
  29   16   37 1
  30   17   18 1
  31   17   38 1
  32   18   19 1
  33   18   23 1
  34   18   39 1
  35   19   20 1
  36   19   40 1
  37   19   41 1
  38   20   21 1
  39   20   42 1
  40   20   43 1
  41   21   22 1
  42   22   23 1
  43   22   44 1
  44   22   45 1
  45   23   46 1
  46   23   47 1
  47   24   25 1
  48   24   48 1
  49   24   49 1
  50   25   50 1
  51   25   51 1
  52   26   27 1
  53   26   28 1
  54   26   29 1

#	End of record

