#	Name: ASD01917430
#	Creating user name:	WinNT
#	Creation time:	15. 06. 2019 20:09

#	Modifying user name:	WinNT
#	Modification time:	15. 06. 2019 20:09

#	Program:	/corina/corina34_cracker 3.40 0067  02.08.2006

@<TRIPOS>MOLECULE
ASD01917430
  36   38    0    0    0
SMALL
NO_CHARGES


@<TRIPOS>ATOM
   1 C1            -0.0186     1.5351     0.0103 C.3     
   2 C2            -0.0014    -0.0035     0.0087 C.3     
   3 C3             1.0306    -0.4916     1.0272 C.3     
   4 C4             0.7302     0.0904     2.4098 C.3     
   5 C5             0.6815     1.6250     2.3081 C.3     
   6 C6             1.8996     2.0720     1.4673 C.3     
   7 C7             1.4513     2.0145    -0.0042 C.3     
   8 C8            -0.5327     1.9734     1.4071 C.3     
   9 C9            -0.8261     2.1050    -1.1273 C.2     
  10 O10           -0.2998     2.8395    -1.9362 O.2     
  11 N11           -2.1332     1.7984    -1.2458 N.am    
  12 C12           -2.9056     2.4088    -2.2328 C.ar    
  13 C13           -4.2271     2.0159    -2.4274 C.ar    
  14 N14           -2.3853     3.3689    -2.9852 N.ar    
  15 N15           -4.9551     2.5965    -3.3624 N.ar    
  16 C16           -4.4308     3.5501    -4.1138 C.ar    
  17 C17           -3.1208     3.9459    -3.9200 C.ar    
  18 N18            0.6334     2.2754     3.6244 N.3     
  19 H19           -0.9878    -0.3795     0.2802 H       
  20 H20            0.2673    -0.3642    -0.9842 H       
  21 H21            0.9991    -1.5799     1.0794 H       
  22 H22            2.0254    -0.1770     0.7118 H       
  23 H23           -0.2319    -0.2825     2.7613 H       
  24 H24            1.5140    -0.2042     3.1077 H       
  25 H25            2.1846     3.0901     1.7326 H       
  26 H26            2.7369     1.3935     1.6306 H       
  27 H27            2.0703     1.3080    -0.5571 H       
  28 H28            1.5180     3.0046    -0.4551 H       
  29 H29           -0.7414     3.0430     1.4289 H       
  30 H30           -1.4125     1.3992     1.6977 H       
  31 H31           -2.5364     1.1530    -0.6444 H       
  32 H32           -4.6555     1.2370    -1.8141 H       
  33 H33           -5.0290     4.0234    -4.8784 H       
  34 H34           -2.6976     4.7281    -4.5327 H       
  35 H35            1.4408     2.0313     4.1781 H       
  36 H36            0.5487     3.2764     3.5302 H       
@<TRIPOS>BOND
   1    1    2 1
   2    1    7 1
   3    1    8 1
   4    1    9 1
   5    2    3 1
   6    2   19 1
   7    2   20 1
   8    3    4 1
   9    3   21 1
  10    3   22 1
  11    4    5 1
  12    4   23 1
  13    4   24 1
  14    5    6 1
  15    5    8 1
  16    5   18 1
  17    6    7 1
  18    6   25 1
  19    6   26 1
  20    7   27 1
  21    7   28 1
  22    8   29 1
  23    8   30 1
  24    9   10 2
  25    9   11 am
  26   11   12 1
  27   11   31 1
  28   12   13 ar
  29   12   14 ar
  30   13   15 ar
  31   13   32 1
  32   14   17 ar
  33   15   16 ar
  34   16   17 ar
  35   16   33 1
  36   17   34 1
  37   18   35 1
  38   18   36 1

#	End of record

