#	Name: ASD01812629
#	Creating user name:	WinNT
#	Creation time:	15. 06. 2019 19:28

#	Modifying user name:	WinNT
#	Modification time:	15. 06. 2019 19:28

#	Program:	/corina/corina34_cracker 3.40 0067  02.08.2006

@<TRIPOS>MOLECULE
ASD01812629
  58   62    0    0    0
SMALL
NO_CHARGES


@<TRIPOS>ATOM
   1 O1            -0.0163     1.3525     0.0095 O.3     
   2 C2             0.0021    -0.0041     0.0020 C.ar    
   3 C3             0.0230    -0.7078     1.1977 C.ar    
   4 C4             0.0418    -2.0893     1.1918 C.ar    
   5 C5             0.0399    -2.7833    -0.0084 C.ar    
   6 C6             0.0193    -2.0997    -1.2003 C.ar    
   7 C7            -0.0057    -0.7019    -1.2135 C.ar    
   8 C8             0.0117    -2.5388    -2.6434 C.3     
   9 N9            -0.0127    -1.3100    -3.4452 N.am    
  10 C10           -0.0311    -0.2528    -2.6152 C.2     
  11 C11           -0.0274    -1.2462    -4.9087 C.3     
  12 O12           -0.0525     0.9095    -2.9716 O.2     
  13 C13            1.2480     2.0185     0.0010 C.3     
  14 C14            1.1239     3.3576     0.7307 C.3     
  15 O15            0.7153     3.1283     2.0807 O.3     
  16 C16            1.6854     2.2640    -1.4445 C.3     
  17 C17            3.0390     2.9770    -1.4536 C.3     
  18 C18            2.9150     4.3161    -0.7239 C.3     
  19 C19            2.4775     4.0707     0.7216 C.3     
  20 Br20           0.0264     0.2274     2.8413 Br      
  21 C21           -1.4531    -1.2437    -5.3971 C.ar    
  22 C22           -2.1208    -0.0446    -5.5681 C.ar    
  23 C23           -3.4267    -0.0366    -6.0151 C.ar    
  24 C24           -4.0720    -1.2392    -6.2943 C.ar    
  25 C25           -3.3948    -2.4440    -6.1204 C.ar    
  26 C26           -2.0873    -2.4404    -5.6782 C.ar    
  27 C27           -5.4768    -1.2367    -6.7750 C.2     
  28 C28           -6.2792    -0.1003    -6.9951 C.2     
  29 N29           -7.4486    -0.5043    -7.4156 N.2     
  30 N30           -7.4392    -1.9029    -7.4801 N.pl3   
  31 C31           -6.2232    -2.3347    -7.0895 C.2     
  32 C32           -8.5564    -2.7507    -7.9037 C.3     
  33 H33            0.0584    -2.6309     2.1260 H       
  34 H34            0.0550    -3.8632    -0.0065 H       
  35 H35            0.9111    -3.1131    -2.8651 H       
  36 H36           -0.8759    -3.1375    -2.8482 H       
  37 H37            0.4709    -0.3343    -5.2377 H       
  38 H38            0.4945    -2.1124    -5.3154 H       
  39 H39            1.9891     1.3977     0.5044 H       
  40 H40            0.3828     3.9784     0.2272 H       
  41 H41            0.6162     3.9354     2.6040 H       
  42 H42            1.7738     1.3100    -1.9643 H       
  43 H43            0.9443     2.8848    -1.9479 H       
  44 H44            3.7801     2.3562    -0.9501 H       
  45 H45            3.3507     3.1519    -2.4833 H       
  46 H46            3.8793     4.8241    -0.7304 H       
  47 H47            2.1739     4.9369    -1.2273 H       
  48 H48            2.3891     5.0246     1.2414 H       
  49 H49            3.2186     3.4499     1.2250 H       
  50 H50           -1.6197     0.8872    -5.3510 H       
  51 H51           -3.9473     0.9002    -6.1479 H       
  52 H52           -3.8907    -3.3791    -6.3350 H       
  53 H53           -1.5599    -3.3737    -5.5472 H       
  54 H54           -5.9801     0.9262    -6.8426 H       
  55 H55           -5.8992    -3.3634    -7.0337 H       
  56 H56           -8.5007    -2.9143    -8.9799 H       
  57 H57           -8.5016    -3.7090    -7.3872 H       
  58 H58           -9.4983    -2.2595    -7.6592 H       
@<TRIPOS>BOND
   1    1    2 1
   2    1   13 1
   3    2    3 ar
   4    2    7 ar
   5    3    4 ar
   6    3   20 1
   7    4    5 ar
   8    4   33 1
   9    5    6 ar
  10    5   34 1
  11    6    8 1
  12    6    7 ar
  13    7   10 1
  14    8    9 1
  15    8   35 1
  16    8   36 1
  17    9   10 am
  18    9   11 1
  19   10   12 2
  20   11   21 1
  21   11   37 1
  22   11   38 1
  23   13   16 1
  24   13   14 1
  25   13   39 1
  26   14   15 1
  27   14   19 1
  28   14   40 1
  29   15   41 1
  30   16   17 1
  31   16   42 1
  32   16   43 1
  33   17   18 1
  34   17   44 1
  35   17   45 1
  36   18   19 1
  37   18   46 1
  38   18   47 1
  39   19   48 1
  40   19   49 1
  41   21   22 ar
  42   21   26 ar
  43   22   23 ar
  44   22   50 1
  45   23   24 ar
  46   23   51 1
  47   24   25 ar
  48   24   27 1
  49   25   26 ar
  50   25   52 1
  51   26   53 1
  52   27   28 1
  53   27   31 2
  54   28   29 2
  55   28   54 1
  56   29   30 1
  57   30   31 1
  58   30   32 1
  59   31   55 1
  60   32   56 1
  61   32   57 1
  62   32   58 1

#	End of record

