#	Name: ASD01410228
#	Creating user name:	WinNT
#	Creation time:	15. 06. 2019 19:17

#	Modifying user name:	WinNT
#	Modification time:	15. 06. 2019 19:17

#	Program:	/corina/corina34_cracker 3.40 0067  02.08.2006

@<TRIPOS>MOLECULE
ASD01410228
  45   47    0    0    0
SMALL
NO_CHARGES


@<TRIPOS>ATOM
   1 C1            -0.7719     0.6017     0.2966 C.2     
   2 C2            -0.9024    -0.7386     0.1796 C.2     
   3 C3            -2.2683    -1.0097     0.0104 C.2     
   4 C4            -2.9165     0.2096     0.0336 C.2     
   5 O5            -1.9840     1.1684     0.2135 O.3     
   6 C6            -4.8171     1.6802    -0.0603 C.2     
   7 S7            -3.9412     3.2102     0.1521 S.3     
   8 C8            -5.4003     4.2130     0.0627 C.2     
   9 N9            -6.4143     3.3986    -0.1120 N.2     
  10 C10           -6.2191     2.0996    -0.1868 C.2     
  11 C11           -4.3082     0.4160    -0.1021 C.2     
  12 O12           -7.1322     1.3047    -0.3491 O.2     
  13 N13           -5.4583     5.5793     0.1579 N.pl3   
  14 C14           -6.7372     6.2722    -0.0172 C.3     
  15 C15            0.5269     1.3399     0.4951 C.3     
  16 C16            1.1226     1.6994    -0.8675 C.3     
  17 C17           -8.2567     6.3455    -2.0038 C.ar    
  18 C18           -6.9842     6.5073    -1.4851 C.ar    
  19 C19           -5.9376     6.8845    -2.3078 C.ar    
  20 C20           -6.1566     7.1014    -3.6523 C.ar    
  21 C21           -7.4382     6.9395    -4.1826 C.ar    
  22 C22           -8.4898     6.5587    -3.3467 C.ar    
  23 C23           -6.5838     7.3759     2.1981 C.2     
  24 O24           -6.6485     6.2512     2.6350 O.2     
  25 O25           -6.4139     8.4120     3.0343 O.3     
  26 C26           -6.6939     7.6153     0.7143 C.3     
  27 C27           -7.6730     7.1634    -5.5774 C.1     
  28 N28           -7.8593     7.3410    -6.6838 N.1     
  29 H29           -0.1039    -1.4652     0.2100 H       
  30 H30           -2.7236    -1.9811    -0.1141 H       
  31 H31           -4.9684    -0.4276    -0.2389 H       
  32 H32           -4.6526     6.0873     0.3413 H       
  33 H33           -7.5409     5.6607     0.3931 H       
  34 H34            0.3433     2.2518     1.0633 H       
  35 H35            1.2254     0.7059     1.0412 H       
  36 H36            2.0620     2.2333    -0.7240 H       
  37 H37            1.3062     0.7875    -1.4358 H       
  38 H38            0.4241     2.3334    -1.4136 H       
  39 H39           -9.0683     6.0470    -1.3569 H       
  40 H40           -4.9470     7.0097    -1.8962 H       
  41 H41           -5.3389     7.3960    -4.2933 H       
  42 H42           -9.4834     6.4317    -3.7504 H       
  43 H43           -6.3486     8.2089     3.9774 H       
  44 H44           -5.8308     8.1870     0.3734 H       
  45 H45           -7.6060     8.1736     0.5030 H       
@<TRIPOS>BOND
   1    1    2 2
   2    1   15 1
   3    1    5 1
   4    2    3 1
   5    2   29 1
   6    3    4 2
   7    3   30 1
   8    4    5 1
   9    4   11 1
  10    6    7 1
  11    6   10 1
  12    6   11 2
  13    7    8 1
  14    8    9 2
  15    8   13 1
  16    9   10 1
  17   10   12 2
  18   11   31 1
  19   13   14 1
  20   13   32 1
  21   14   18 1
  22   14   26 1
  23   14   33 1
  24   15   16 1
  25   15   34 1
  26   15   35 1
  27   16   36 1
  28   16   37 1
  29   16   38 1
  30   17   18 ar
  31   17   22 ar
  32   17   39 1
  33   18   19 ar
  34   19   20 ar
  35   19   40 1
  36   20   21 ar
  37   20   41 1
  38   21   22 ar
  39   21   27 1
  40   22   42 1
  41   23   24 2
  42   23   25 1
  43   23   26 1
  44   25   43 1
  45   26   44 1
  46   26   45 1
  47   27   28 3

#	End of record

