#	Name: ASD03240180
#	Creating user name:	WinNT
#	Creation time:	15. 06. 2019 20:34

#	Modifying user name:	WinNT
#	Modification time:	15. 06. 2019 20:34

#	Program:	/corina/corina34_cracker 3.40 0067  02.08.2006

@<TRIPOS>MOLECULE
ASD03240180
  74   81    0    0    0
SMALL
NO_CHARGES


@<TRIPOS>ATOM
   1 C1            -0.0171     1.4111     0.0098 C.ar    
   2 C2             0.0021    -0.0041     0.0020 C.ar    
   3 C3             1.1858     2.1159     0.0021 C.ar    
   4 C4             2.3722     1.3858    -0.0131 C.ar    
   5 C5             2.3149    -0.0213    -0.0202 C.ar    
   6 N6             1.1558    -0.6601    -0.0125 N.ar    
   7 C7             3.5747    -0.8004    -0.0369 C.ar    
   8 C8             3.6804     2.0823    -0.0224 C.ar    
   9 C9             3.9249     3.1000    -0.9435 C.ar    
  10 C10            5.1446     3.7453    -0.9470 C.ar    
  11 C11            6.1240     3.3838    -0.0393 C.ar    
  12 C12            5.8872     2.3748     0.8769 C.ar    
  13 C13            4.6693     1.7262     0.8938 C.ar    
  14 C14            3.6572    -2.0127     0.6477 C.ar    
  15 C15            4.8333    -2.7341     0.6280 C.ar    
  16 C16            5.9291    -2.2572    -0.0689 C.ar    
  17 C17            5.8533    -1.0553    -0.7498 C.ar    
  18 C18            4.6811    -0.3274    -0.7420 C.ar    
  19 C19            7.2107    -3.0498    -0.0859 C.3     
  20 N20            7.1977    -3.9772    -1.2251 N.3     
  21 C21            8.5163    -4.5948    -1.4159 C.3     
  22 C22            8.5058    -5.4389    -2.6923 C.3     
  23 C23            7.4275    -6.5197    -2.5748 C.3     
  24 C24            6.0717    -5.8522    -2.3282 C.3     
  25 C25            6.1528    -4.9961    -1.0623 C.3     
  26 C26            7.3716    -7.3164    -3.8527 C.2     
  27 N27            7.1090    -6.8296    -5.0385 N.2     
  28 N28            7.1572    -7.9034    -5.9423 N.pl3   
  29 C29            7.4563    -9.0008    -5.2103 C.2     
  30 N30            7.5869    -8.6241    -3.9548 N.2     
  31 C31            7.6141   -10.3783    -5.7285 C.ar    
  32 N32            7.4590   -10.6158    -7.0253 N.ar    
  33 C33            7.5909   -11.8267    -7.5259 C.ar    
  34 C34            7.8977   -12.9025    -6.7122 C.ar    
  35 C35            8.0684   -12.6989    -5.3501 C.ar    
  36 C36            7.9301   -11.4152    -4.8514 C.ar    
  37 C37           -1.2797    -0.7166     0.0109 C.2     
  38 C38           -2.4297    -0.0306     0.0261 C.2     
  39 N39           -2.4690     1.3406     0.0338 N.pl3   
  40 C40           -1.3146     2.0933     0.0319 C.2     
  41 C41           -3.4943     2.2434     0.0484 C.2     
  42 N42           -2.9587     3.4427     0.0493 N.2     
  43 N43           -1.6754     3.3565     0.0404 N.2     
  44 N44           -4.8503     1.9481     0.0598 N.pl3   
  45 H45            1.1975     3.1958     0.0074 H       
  46 H46            3.1612     3.3826    -1.6530 H       
  47 H47            5.3352     4.5338    -1.6600 H       
  48 H48            7.0774     3.8911    -0.0463 H       
  49 H49            6.6557     2.0966     1.5829 H       
  50 H50            4.4854     0.9388     1.6097 H       
  51 H51            2.8026    -2.3858     1.1923 H       
  52 H52            4.8986    -3.6729     1.1580 H       
  53 H53            6.7122    -0.6879    -1.2918 H       
  54 H54            4.6231     0.6107    -1.2739 H       
  55 H55            8.0573    -2.3698    -0.1806 H       
  56 H56            7.3007    -3.6150     0.8418 H       
  57 H57            9.2733    -3.8153    -1.5022 H       
  58 H58            8.7464    -5.2312    -0.5614 H       
  59 H59            8.2894    -4.8006    -3.5490 H       
  60 H60            9.4799    -5.9097    -2.8254 H       
  61 H61            7.6645    -7.1816    -1.7418 H       
  62 H62            5.8170    -5.2204    -3.1792 H       
  63 H63            5.3067    -6.6182    -2.2011 H       
  64 H64            6.3939    -5.6306    -0.2096 H       
  65 H65            5.1932    -4.5081    -0.8919 H       
  66 H66            7.0058    -7.8658    -6.8997 H       
  67 H67            7.4575   -11.9821    -8.5863 H       
  68 H68            8.0029   -13.8916    -7.1329 H       
  69 H69            8.3082   -13.5231    -4.6946 H       
  70 H70            8.0562   -11.2209    -3.7965 H       
  71 H71           -1.2963    -1.7965     0.0049 H       
  72 H72           -3.3611    -0.5774     0.0320 H       
  73 H73           -5.1455     1.0241     0.0576 H       
  74 H74           -5.5029     2.6657     0.0699 H       
@<TRIPOS>BOND
   1    1    2 ar
   2    1    3 ar
   3    1   40 1
   4    2   37 1
   5    2    6 ar
   6    3    4 ar
   7    3   45 1
   8    4    5 ar
   9    4    8 1
  10    5    6 ar
  11    5    7 1
  12    7   14 ar
  13    7   18 ar
  14    8    9 ar
  15    8   13 ar
  16    9   10 ar
  17    9   46 1
  18   10   11 ar
  19   10   47 1
  20   11   12 ar
  21   11   48 1
  22   12   13 ar
  23   12   49 1
  24   13   50 1
  25   14   15 ar
  26   14   51 1
  27   15   16 ar
  28   15   52 1
  29   16   17 ar
  30   16   19 1
  31   17   18 ar
  32   17   53 1
  33   18   54 1
  34   19   20 1
  35   19   55 1
  36   19   56 1
  37   20   21 1
  38   20   25 1
  39   21   22 1
  40   21   57 1
  41   21   58 1
  42   22   23 1
  43   22   59 1
  44   22   60 1
  45   23   24 1
  46   23   26 1
  47   23   61 1
  48   24   25 1
  49   24   62 1
  50   24   63 1
  51   25   64 1
  52   25   65 1
  53   26   27 2
  54   26   30 1
  55   27   28 1
  56   28   29 1
  57   28   66 1
  58   29   30 2
  59   29   31 1
  60   31   32 ar
  61   31   36 ar
  62   32   33 ar
  63   33   34 ar
  64   33   67 1
  65   34   35 ar
  66   34   68 1
  67   35   36 ar
  68   35   69 1
  69   36   70 1
  70   37   38 2
  71   37   71 1
  72   38   39 1
  73   38   72 1
  74   39   40 1
  75   39   41 1
  76   40   43 2
  77   41   42 2
  78   41   44 1
  79   42   43 1
  80   44   73 1
  81   44   74 1

#	End of record

