#	Name: ASD01209204
#	Creating user name:	WinNT
#	Creation time:	15. 06. 2019 19:11

#	Modifying user name:	WinNT
#	Modification time:	15. 06. 2019 19:11

#	Program:	/corina/corina34_cracker 3.40 0067  02.08.2006

@<TRIPOS>MOLECULE
ASD01209204
  83   85    0    0    0
SMALL
NO_CHARGES


@<TRIPOS>ATOM
   1 O1             2.0990     0.3305    -0.6929 O.3     
   2 O2             3.6246     1.6173     1.0185 O.3     
   3 C3             3.0718     6.9490    -8.3760 C.ar    
   4 C4             2.3626     6.9168    -9.5677 C.ar    
   5 C5             1.1982     6.1686    -9.6667 C.ar    
   6 C6             0.7396     5.4499    -8.5754 C.ar    
   7 C7             1.4500     5.4796    -7.3745 C.ar    
   8 C8             2.6231     6.2290    -7.2810 C.ar    
   9 O9             0.5067     6.1412   -10.8364 O.3     
  10 C10            0.9638     4.7149    -6.2067 C.2     
  11 N11            1.6513     4.7449    -5.0478 N.am    
  12 O12           -0.0561     4.0589    -6.2915 O.2     
  13 C13            1.1945     4.0263    -3.9505 C.2     
  14 P14            2.9181     1.6907    -0.4263 P.3     
  15 O15            3.9513     1.8575    -1.4728 O.2     
  16 C16            1.7729     3.1084    -0.4715 C.3     
  17 N17            1.7780     3.9869    -2.7934 N.2     
  18 S18           -0.2232     3.0709    -3.9267 S.3     
  19 C19            0.0820     2.6411    -2.2457 C.2     
  20 C20            1.2045     3.2509    -1.8599 C.2     
  21 C21            2.7298    -0.9451    -0.8232 C.3     
  22 C22            1.6664    -2.0172    -1.0690 C.3     
  23 C23            4.6535     0.6775     1.3349 C.3     
  24 C24            5.1010     0.8798     2.7839 C.3     
  25 O25            4.2114     7.6838    -8.2843 O.3     
  26 C26            4.8221     7.7758    -6.9956 C.3     
  27 C27            5.7170     6.5560    -6.7671 C.3     
  28 C28            5.6669     9.0492    -6.9213 C.3     
  29 C29            1.0971     6.8065   -11.9549 C.3     
  30 C30            0.5849     6.1758   -13.2518 C.3     
  31 C31            1.2461     6.8684   -14.4476 C.3     
  32 N32            1.0104     8.3150   -14.3459 N.am    
  33 C33            1.3830     9.0059   -13.1039 C.3     
  34 C34            0.7202     8.2894   -11.9232 C.3     
  35 O35            0.2527    10.3210   -15.2656 O.3     
  36 C36           -0.3401    10.9888   -16.4106 C.3     
  37 C37           -1.7115    10.3771   -16.7040 C.3     
  38 C38           -0.5013    12.4792   -16.1046 C.3     
  39 C39            0.5678    10.8136   -17.6296 C.3     
  40 C40            0.4632     8.9954   -15.3725 C.2     
  41 O41            0.1597     8.4126   -16.3946 O.2     
  42 H42            2.7176     7.4758   -10.4208 H       
  43 H43           -0.1670     4.8682    -8.6532 H       
  44 H44            3.1759     6.2546    -6.3535 H       
  45 H45            2.4651     5.2683    -4.9802 H       
  46 H46            0.9621     2.9432     0.2379 H       
  47 H47            2.3103     4.0182    -0.2037 H       
  48 H48           -0.5339     1.9992    -1.6333 H       
  49 H49            3.4243    -0.9229    -1.6629 H       
  50 H50            3.2741    -1.1764     0.0925 H       
  51 H51            0.9718    -2.0394    -0.2293 H       
  52 H52            1.1221    -1.7859    -1.9847 H       
  53 H53            2.1475    -2.9902    -1.1684 H       
  54 H54            4.2710    -0.3356     1.2108 H       
  55 H55            5.5022     0.8297     0.6680 H       
  56 H56            5.4836     1.8929     2.9080 H       
  57 H57            4.2524     0.7276     3.4509 H       
  58 H58            5.8859     0.1629     3.0253 H       
  59 H59            4.0485     7.8077    -6.2284 H       
  60 H60            6.1828     6.6261    -5.7841 H       
  61 H61            5.1151     5.6488    -6.8200 H       
  62 H62            6.4906     6.5241    -7.5343 H       
  63 H63            5.0293     9.9182    -7.0841 H       
  64 H64            6.1327     9.1194    -5.9383 H       
  65 H65            6.4405     9.0173    -7.6885 H       
  66 H66            2.1814     6.7064   -11.9059 H       
  67 H67            0.8332     5.1145   -13.2631 H       
  68 H68           -0.4966     6.2976   -13.3132 H       
  69 H69            2.3181     6.6712   -14.4371 H       
  70 H70            0.8122     6.4917   -15.3738 H       
  71 H71            2.4661     8.9831   -12.9838 H       
  72 H72            1.0394    10.0396   -13.1435 H       
  73 H73           -0.3625     8.3912   -11.9971 H       
  74 H74            1.0648     8.7325   -10.9888 H       
  75 H75           -2.3583    10.5019   -15.8355 H       
  76 H76           -2.1565    10.8785   -17.5635 H       
  77 H77           -1.5967     9.3154   -16.9220 H       
  78 H78            0.4757    12.9149   -15.8956 H       
  79 H79           -0.9463    12.9805   -16.9641 H       
  80 H80           -1.1481    12.6039   -15.2362 H       
  81 H81            0.6826     9.7518   -17.8476 H       
  82 H82            0.1227    11.3149   -18.4891 H       
  83 H83            1.5448    11.2494   -17.4206 H       
@<TRIPOS>BOND
   1    1   21 1
   2    1   14 1
   3    2   23 1
   4    2   14 1
   5    3    4 ar
   6    3   25 1
   7    3    8 ar
   8    4    5 ar
   9    4   42 1
  10    5    6 ar
  11    5    9 1
  12    6    7 ar
  13    6   43 1
  14    7    8 ar
  15    7   10 1
  16    8   44 1
  17    9   29 1
  18   10   11 am
  19   10   12 2
  20   11   13 1
  21   11   45 1
  22   13   17 2
  23   13   18 1
  24   14   15 2
  25   14   16 1
  26   16   20 1
  27   16   46 1
  28   16   47 1
  29   17   20 1
  30   18   19 1
  31   19   20 2
  32   19   48 1
  33   21   22 1
  34   21   49 1
  35   21   50 1
  36   22   51 1
  37   22   52 1
  38   22   53 1
  39   23   24 1
  40   23   54 1
  41   23   55 1
  42   24   56 1
  43   24   57 1
  44   24   58 1
  45   25   26 1
  46   26   27 1
  47   26   28 1
  48   26   59 1
  49   27   60 1
  50   27   61 1
  51   27   62 1
  52   28   63 1
  53   28   64 1
  54   28   65 1
  55   29   30 1
  56   29   34 1
  57   29   66 1
  58   30   31 1
  59   30   67 1
  60   30   68 1
  61   31   32 1
  62   31   69 1
  63   31   70 1
  64   32   33 1
  65   32   40 am
  66   33   34 1
  67   33   71 1
  68   33   72 1
  69   34   73 1
  70   34   74 1
  71   35   36 1
  72   35   40 1
  73   36   37 1
  74   36   38 1
  75   36   39 1
  76   37   75 1
  77   37   76 1
  78   37   77 1
  79   38   78 1
  80   38   79 1
  81   38   80 1
  82   39   81 1
  83   39   82 1
  84   39   83 1
  85   40   41 2

#	End of record

