#	Name: ASD09740356
#	Creating user name:	WinNT
#	Creation time:	15. 06. 2019 21:23

#	Modifying user name:	WinNT
#	Modification time:	15. 06. 2019 21:23

#	Program:	/corina/corina34_cracker 3.40 0067  02.08.2006

@<TRIPOS>MOLECULE
ASD09740356
  61   65    0    0    0
SMALL
NO_CHARGES


@<TRIPOS>ATOM
   1 O1            -0.6484    -0.4163     1.4555 O.3     
   2 O2            -1.0918     2.1644     2.3018 O.3     
   3 N3             5.6913    -0.7781     0.5126 N.2     
   4 O4             4.4907    -0.7453     0.6805 O.3     
   5 C5             6.2226     0.3842     0.7982 C.2     
   6 N6             5.2191     1.2026     1.1803 N.2     
   7 C7             4.1207     0.4743     1.1021 C.2     
   8 C8             2.7474     0.9169     1.4175 C.ar    
   9 C9             7.6598     0.7362     0.7172 C.ar    
  10 C10            8.6198    -0.2570     0.4534 C.ar    
  11 C11            9.9810     0.0874     0.3787 C.ar    
  12 C12           10.3638     1.4111     0.5666 C.ar    
  13 C13            9.4143     2.3777     0.8241 C.ar    
  14 C14            8.0706     2.0511     0.8956 C.ar    
  15 C15            1.6779     0.0278     1.2863 C.ar    
  16 C16            0.3951     0.4466     1.5826 C.ar    
  17 C17            0.1703     1.7538     2.0113 C.ar    
  18 C18            1.2326     2.6366     2.1415 C.ar    
  19 C19            2.5161     2.2231     1.8529 C.ar    
  20 C20           -1.2504     3.5167     2.7356 C.3     
  21 C21           -2.7293     3.7930     3.0135 C.3     
  22 C22           -0.3451    -1.7401     1.0110 C.3     
  23 C23           -1.6350    -2.5589     0.9298 C.3     
  24 N24           10.6784    -1.0705     0.1133 N.pl3   
  25 C25            9.8115    -2.1236     0.0190 C.2     
  26 C26            8.5519    -1.6979     0.2149 C.2     
  27 C27            7.3058    -2.5451     0.1932 C.3     
  28 N28            6.7071    -2.5012    -1.1476 N.3     
  29 C29            7.4246    -3.3994    -2.0781 C.3     
  30 C30            6.8145    -1.1409    -1.7342 C.3     
  31 C31            6.6447    -1.3954    -3.2531 C.3     
  32 C32            7.3925    -2.7317    -3.4654 C.3     
  33 O33            7.2536    -0.3490    -4.0123 O.3     
  34 H34           11.4076     1.6829     0.5109 H       
  35 H35            9.7224     3.4027     0.9687 H       
  36 H36            7.3399     2.8203     1.0981 H       
  37 H37            1.8534    -0.9846     0.9538 H       
  38 H38            1.0545     3.6486     2.4739 H       
  39 H39            3.3413     2.9123     1.9551 H       
  40 H40           -0.6735     3.6760     3.6467 H       
  41 H41           -0.8945     4.1919     1.9575 H       
  42 H42           -3.3062     3.6337     2.1025 H       
  43 H43           -3.0852     3.1177     3.7917 H       
  44 H44           -2.8503     4.8245     3.3444 H       
  45 H45            0.1193    -1.6951     0.0259 H       
  46 H46            0.3408    -2.2115     1.7149 H       
  47 H47           -1.4037    -3.5686     0.5907 H       
  48 H48           -2.0995    -2.6039     1.9148 H       
  49 H49           -2.3209    -2.0875     0.2259 H       
  50 H50           11.6410    -1.1299     0.0086 H       
  51 H51           10.0965    -3.1455    -0.1832 H       
  52 H52            7.5620    -3.5746     0.4431 H       
  53 H53            6.5925    -2.1609     0.9223 H       
  54 H54            8.4566    -3.5257    -1.7507 H       
  55 H55            6.9245    -4.3670    -2.1200 H       
  56 H56            6.0184    -0.4969    -1.3607 H       
  57 H57            7.7921    -0.7072    -1.5237 H       
  58 H58            5.5908    -1.4978    -3.5116 H       
  59 H59            8.4065    -2.5458    -3.8194 H       
  60 H60            6.8524    -3.3589    -4.1747 H       
  61 H61            7.1753    -0.4609    -4.9696 H       
@<TRIPOS>BOND
   1    1   22 1
   2    1   16 1
   3    2   20 1
   4    2   17 1
   5    3    4 1
   6    3    5 2
   7    4    7 1
   8    5    6 1
   9    5    9 1
  10    6    7 2
  11    7    8 1
  12    8   15 ar
  13    8   19 ar
  14    9   10 ar
  15    9   14 ar
  16   10   11 ar
  17   10   26 1
  18   11   12 ar
  19   11   24 1
  20   12   13 ar
  21   12   34 1
  22   13   14 ar
  23   13   35 1
  24   14   36 1
  25   15   16 ar
  26   15   37 1
  27   16   17 ar
  28   17   18 ar
  29   18   19 ar
  30   18   38 1
  31   19   39 1
  32   20   21 1
  33   20   40 1
  34   20   41 1
  35   21   42 1
  36   21   43 1
  37   21   44 1
  38   22   23 1
  39   22   45 1
  40   22   46 1
  41   23   47 1
  42   23   48 1
  43   23   49 1
  44   24   25 1
  45   24   50 1
  46   25   26 2
  47   25   51 1
  48   26   27 1
  49   27   28 1
  50   27   52 1
  51   27   53 1
  52   28   29 1
  53   28   30 1
  54   29   32 1
  55   29   54 1
  56   29   55 1
  57   30   31 1
  58   30   56 1
  59   30   57 1
  60   31   32 1
  61   31   33 1
  62   31   58 1
  63   32   59 1
  64   32   60 1
  65   33   61 1

#	End of record

