#	Name: ASD03430984
#	Creating user name:	WinNT
#	Creation time:	15. 06. 2019 20:41

#	Modifying user name:	WinNT
#	Modification time:	15. 06. 2019 20:41

#	Program:	/corina/corina34_cracker 3.40 0067  02.08.2006

@<TRIPOS>MOLECULE
ASD03430984
  51   56    0    0    0
SMALL
NO_CHARGES


@<TRIPOS>ATOM
   1 O1            -0.6001     1.7174    -1.0950 O.3     
   2 C2            -0.7016     0.2996    -1.2670 C.3     
   3 C3             0.1416    -0.3773    -0.1778 C.3     
   4 O4             1.4974     0.0581    -0.3248 O.3     
   5 C5             1.6958     1.3936    -0.5010 C.ar    
   6 C6             0.6483     2.2207    -0.8894 C.ar    
   7 C7             2.9563     1.9262    -0.2882 C.ar    
   8 C8             3.1864     3.2868    -0.4647 C.ar    
   9 C9             2.1328     4.1027    -0.8657 C.ar    
  10 C10            0.8751     3.5762    -1.0712 C.ar    
  11 O11            4.3313     4.0078    -0.2925 O.3     
  12 C12            2.6939     5.4933    -0.9991 C.3     
  13 C13            4.2112     5.2634    -0.9886 C.3     
  14 N14            1.6340     7.4426    -0.4499 N.am    
  15 C15            2.2577     6.3929     0.1214 C.2     
  16 C16            2.2368     6.1729    -2.2557 C.ar    
  17 C17            2.3311     5.8618    -3.5938 C.ar    
  18 C18            1.7936     6.7131    -4.5427 C.ar    
  19 C19            1.1616     7.8770    -4.1441 C.ar    
  20 C20            1.0656     8.1937    -2.8051 C.ar    
  21 C21            1.6042     7.3427    -1.8429 C.ar    
  22 O22            2.4326     6.2110     1.3077 O.2     
  23 C23            1.0548     8.5582     0.3026 C.3     
  24 C24            2.0723     9.6630     0.4257 C.ar    
  25 C25            1.7250    10.8590     1.0261 C.ar    
  26 C26            2.6581    11.8723     1.1389 C.ar    
  27 C27            3.9391    11.6898     0.6518 C.ar    
  28 C28            4.2866    10.4939     0.0524 C.ar    
  29 C29            3.3544     9.4787    -0.0566 C.ar    
  30 C30            0.3287    11.0579     1.5571 C.3     
  31 F31            0.2259    12.3281     2.1344 F       
  32 F32           -0.5896    10.9470     0.5075 F       
  33 F33            0.0536    10.0833     2.5223 F       
  34 H34           -1.7426    -0.0089    -1.1709 H       
  35 H35           -0.3241     0.0205    -2.2507 H       
  36 H36           -0.2314    -0.0923     0.8059 H       
  37 H37            0.0888    -1.4601    -0.2920 H       
  38 H38            3.7664     1.2806     0.0172 H       
  39 H39            0.0644     4.2217    -1.3750 H       
  40 H40            4.7195     6.0586    -0.4433 H       
  41 H41            4.5973     5.1812    -2.0047 H       
  42 H42            2.8253     4.9526    -3.9029 H       
  43 H43            1.8677     6.4697    -5.5923 H       
  44 H44            0.7414     8.5412    -4.8849 H       
  45 H45            0.5715     9.1048    -2.5017 H       
  46 H46            0.1747     8.9315    -0.2209 H       
  47 H47            0.7682     8.2159     1.2970 H       
  48 H48            2.3866    12.8068     1.6073 H       
  49 H49            4.6681    12.4818     0.7393 H       
  50 H50            5.2872    10.3514    -0.3285 H       
  51 H51            3.6270     8.5428    -0.5216 H       
@<TRIPOS>BOND
   1    1    2 1
   2    1    6 1
   3    2    3 1
   4    2   34 1
   5    2   35 1
   6    3    4 1
   7    3   36 1
   8    3   37 1
   9    4    5 1
  10    5    6 ar
  11    5    7 ar
  12    6   10 ar
  13    7    8 ar
  14    7   38 1
  15    8    9 ar
  16    8   11 1
  17    9   10 ar
  18    9   12 1
  19   10   39 1
  20   11   13 1
  21   12   13 1
  22   12   15 1
  23   12   16 1
  24   13   40 1
  25   13   41 1
  26   14   15 am
  27   14   21 1
  28   14   23 1
  29   15   22 2
  30   16   17 ar
  31   16   21 ar
  32   17   18 ar
  33   17   42 1
  34   18   19 ar
  35   18   43 1
  36   19   20 ar
  37   19   44 1
  38   20   21 ar
  39   20   45 1
  40   23   24 1
  41   23   46 1
  42   23   47 1
  43   24   25 ar
  44   24   29 ar
  45   25   26 ar
  46   25   30 1
  47   26   27 ar
  48   26   48 1
  49   27   28 ar
  50   27   49 1
  51   28   29 ar
  52   28   50 1
  53   29   51 1
  54   30   31 1
  55   30   32 1
  56   30   33 1

#	End of record

