#	Name: ASD03430345
#	Creating user name:	WinNT
#	Creation time:	15. 06. 2019 20:40

#	Modifying user name:	WinNT
#	Modification time:	15. 06. 2019 20:40

#	Program:	/corina/corina34_cracker 3.40 0067  02.08.2006

@<TRIPOS>MOLECULE
ASD03430345
  60   64    0    0    0
SMALL
NO_CHARGES


@<TRIPOS>ATOM
   1 C1            -0.0167     1.3822     0.0096 C.ar    
   2 C2             0.0021    -0.0041     0.0020 C.ar    
   3 C3             1.2028    -0.6819    -0.0155 C.ar    
   4 C4             2.4086     0.0129    -0.0153 C.ar    
   5 C5             2.3861     1.4040    -0.0116 C.ar    
   6 C6             1.1815     2.0868     0.0020 C.ar    
   7 O7             3.4714    -0.8418    -0.0052 O.3     
   8 C8             1.5512    -2.1458    -0.0497 C.3     
   9 C9             3.0368    -2.1459    -0.4358 C.3     
  10 C10            0.4288    -3.8613     1.0076 C.ar    
  11 C11            1.3154    -2.8199     1.2694 C.ar    
  12 C12            0.7179    -2.9069    -1.0403 C.2     
  13 N13            0.0997    -3.8858    -0.3500 N.am    
  14 O14            0.6202    -2.6845    -2.2286 O.2     
  15 C15            1.7820    -2.5975     2.5511 C.ar    
  16 C16            1.3681    -3.4164     3.5925 C.ar    
  17 C17            0.4861    -4.4564     3.3408 C.ar    
  18 C18            0.0179    -4.6789     2.0565 C.ar    
  19 C19           -0.8116    -4.8615    -0.9529 C.3     
  20 O20           -1.2113     2.0356     0.0189 O.3     
  21 C21           -1.1865     3.4160     0.3985 C.3     
  22 C22           -0.0351     4.0994    -0.3517 C.3     
  23 O23            1.1866     3.4485     0.0119 O.3     
  24 C24           -2.2415    -4.3189    -0.9090 C.3     
  25 O25           -2.3348    -3.1550    -1.7329 O.3     
  26 C26           -3.6366    -2.5664    -1.7621 C.3     
  27 O27           -3.3565    -1.7384    -4.0152 O.3     
  28 C28           -3.6193    -1.3349    -2.6697 C.3     
  29 O29            2.6466    -1.5771     2.7918 O.3     
  30 O30            0.0793    -5.2601     4.3583 O.3     
  31 C31            0.6001    -4.9751     5.6581 C.3     
  32 C32           -3.3188    -0.6576    -4.9493 C.3     
  33 C33            3.0882    -1.4052     4.1399 C.3     
  34 H34           -0.9268    -0.5549     0.0101 H       
  35 H35            3.3148     1.9552    -0.0194 H       
  36 H36            3.1566    -2.2575    -1.5135 H       
  37 H37            3.5753    -2.9290     0.0978 H       
  38 H38            1.7311    -3.2440     4.5950 H       
  39 H39           -0.6690    -5.4907     1.8680 H       
  40 H40           -0.5216    -5.0378    -1.9887 H       
  41 H41           -0.7611    -5.7978    -0.3970 H       
  42 H42           -2.1316     3.8881     0.1303 H       
  43 H43           -1.0254     3.4989     1.4733 H       
  44 H44           -0.1925     4.0100    -1.4266 H       
  45 H45            0.0117     5.1520    -0.0728 H       
  46 H46           -2.9303    -5.0798    -1.2758 H       
  47 H47           -2.5001    -4.0591     0.1175 H       
  48 H48           -4.3544    -3.2910    -2.1466 H       
  49 H49           -3.9242    -2.2703    -0.7533 H       
  50 H50           -4.5868    -0.8351    -2.6227 H       
  51 H51           -2.8398    -0.6494    -2.3372 H       
  52 H52            0.1964    -5.6892     6.3759 H       
  53 H53            1.6871    -5.0538     5.6393 H       
  54 H54            0.3140    -3.9648     5.9506 H       
  55 H55           -4.2801    -0.1438    -4.9495 H       
  56 H56           -2.5330     0.0419    -4.6640 H       
  57 H57           -3.1144    -1.0465    -5.9468 H       
  58 H58            2.2281    -1.2181     4.7829 H       
  59 H59            3.6007    -2.3079     4.4723 H       
  60 H60            3.7725    -0.5585     4.1930 H       
@<TRIPOS>BOND
   1    1    2 ar
   2    1    6 ar
   3    1   20 1
   4    2    3 ar
   5    2   34 1
   6    3    4 ar
   7    3    8 1
   8    4    5 ar
   9    4    7 1
  10    5    6 ar
  11    5   35 1
  12    6   23 1
  13    7    9 1
  14    8    9 1
  15    8   11 1
  16    8   12 1
  17    9   36 1
  18    9   37 1
  19   10   11 ar
  20   10   13 1
  21   10   18 ar
  22   11   15 ar
  23   12   13 am
  24   12   14 2
  25   13   19 1
  26   15   16 ar
  27   15   29 1
  28   16   17 ar
  29   16   38 1
  30   17   18 ar
  31   17   30 1
  32   18   39 1
  33   19   24 1
  34   19   40 1
  35   19   41 1
  36   20   21 1
  37   21   22 1
  38   21   42 1
  39   21   43 1
  40   22   23 1
  41   22   44 1
  42   22   45 1
  43   24   25 1
  44   24   46 1
  45   24   47 1
  46   25   26 1
  47   26   28 1
  48   26   48 1
  49   26   49 1
  50   27   28 1
  51   27   32 1
  52   28   50 1
  53   28   51 1
  54   29   33 1
  55   30   31 1
  56   31   52 1
  57   31   53 1
  58   31   54 1
  59   32   55 1
  60   32   56 1
  61   32   57 1
  62   33   58 1
  63   33   59 1
  64   33   60 1

#	End of record

