#	Name: ASD03330077
#	Creating user name:	WinNT
#	Creation time:	15. 06. 2019 20:36

#	Modifying user name:	WinNT
#	Modification time:	15. 06. 2019 20:36

#	Program:	/corina/corina34_cracker 3.40 0067  02.08.2006

@<TRIPOS>MOLECULE
ASD03330077
  81   85    0    0    0
SMALL
NO_CHARGES


@<TRIPOS>ATOM
   1 C1            -0.8761     1.0339    -1.3128 C.2     
   2 C2            -0.8970    -0.1041    -0.5633 C.2     
   3 C3             0.2076     1.8557    -1.0829 C.2     
   4 C4             1.0845     1.3837    -0.1328 C.2     
   5 S5             0.5103    -0.1574     0.4883 S.3     
   6 C6             2.3192     2.0667     0.2981 C.ar    
   7 C7             2.5840     2.2458     1.6595 C.ar    
   8 C8             3.2313     2.5322    -0.6520 C.ar    
   9 C9             4.3838     3.1694    -0.2434 C.ar    
  10 C10            4.6389     3.3489     1.1072 C.ar    
  11 C11            3.7409     2.8850     2.0556 C.ar    
  12 C12            0.4107     3.1380    -1.7985 C.ar    
  13 C13            0.4027     3.1691    -3.1924 C.ar    
  14 C14            0.6045     4.3166    -1.0791 C.ar    
  15 C15            0.7932     5.5079    -1.7480 C.ar    
  16 C16            0.7900     5.5344    -3.1359 C.ar    
  17 C17            0.5921     4.3638    -3.8551 C.ar    
  18 C18           -1.9397    -1.1315    -0.6245 C.2     
  19 O19           -3.1108    -0.8069    -0.6935 O.2     
  20 O20            0.9758     6.7101    -3.7920 O.3     
  21 N21           -1.6022    -2.4362    -0.6044 N.am    
  22 C22           -2.6264    -3.4770    -0.7671 C.3     
  23 C23           -0.2022    -2.8446    -0.4255 C.3     
  24 C24            0.1870    -3.7855    -1.5700 C.3     
  25 C25           -0.8048    -4.9496    -1.6278 C.3     
  26 C26           -2.2050    -4.4095    -1.9071 C.3     
  27 N27           -0.4153    -5.8715    -2.7031 N.3     
  28 C28           -1.3792    -6.9724    -2.8273 C.3     
  29 C29           -1.0237    -7.8284    -4.0451 C.3     
  30 C30            0.3937    -8.3827    -3.8771 C.3     
  31 C31            1.3714    -7.2174    -3.7014 C.3     
  32 C32            0.9466    -6.3792    -2.4936 C.3     
  33 Cl33           1.4598     1.6656     2.8483 Cl      
  34 F34            5.7702     3.9737     1.5008 F       
  35 C35           -0.7961    -5.6824    -0.3110 C.2     
  36 N36            0.3739    -5.9645     0.2955 N.am    
  37 O37           -1.8420    -6.0182     0.2030 O.2     
  38 C38            0.9609     6.6654    -5.2202 C.3     
  39 C39            1.1846     8.0729    -5.7769 C.3     
  40 C40            1.1686     8.0251    -7.3060 C.3     
  41 S41            1.4338     9.6938    -7.9660 S.o2    
  42 F42            0.4423    -9.2080    -2.7485 F       
  43 F43            0.7448    -9.1204    -5.0127 F       
  44 O44            0.3249    10.5053    -7.6042 O.2     
  45 O45            2.7452    10.1154    -7.6173 O.2     
  46 C46            1.3772     9.4024    -9.7556 C.3     
  47 H47           -1.6449     1.2713    -2.0333 H       
  48 H48            3.0343     2.3928    -1.7047 H       
  49 H49            5.0896     3.5292    -0.9774 H       
  50 H50            3.9451     3.0278     3.1065 H       
  51 H51            0.2488     2.2586    -3.7526 H       
  52 H52            0.6064     4.2967     0.0007 H       
  53 H53            0.9433     6.4211    -1.1914 H       
  54 H54            0.5901     4.3879    -4.9349 H       
  55 H55           -2.7175    -4.0477     0.1571 H       
  56 H56           -3.5830    -3.0137    -1.0087 H       
  57 H57            0.4402    -1.9642    -0.4418 H       
  58 H58           -0.0916    -3.3626     0.5271 H       
  59 H59            0.1632    -3.2401    -2.5135 H       
  60 H60            1.1916    -4.1718    -1.3978 H       
  61 H61           -2.9088    -5.2394    -1.9718 H       
  62 H62           -2.2019    -3.8603    -2.8486 H       
  63 H63           -1.3452    -7.5879    -1.9283 H       
  64 H64           -2.3825    -6.5646    -2.9503 H       
  65 H65           -1.7300    -8.6545    -4.1279 H       
  66 H66           -1.0709    -7.2168    -4.9461 H       
  67 H67            2.3763    -7.6070    -3.5386 H       
  68 H68            1.3619    -6.5962    -4.5970 H       
  69 H69            1.6324    -5.5404    -2.3743 H       
  70 H70            0.9696    -6.9974    -1.5962 H       
  71 H71            1.2061    -5.6360    -0.0793 H       
  72 H72            0.3839    -6.4960     1.1069 H       
  73 H73            1.7541     6.0055    -5.5714 H       
  74 H74           -0.0032     6.2886    -5.5619 H       
  75 H75            0.3913     8.7329    -5.4257 H       
  76 H76            2.1486     8.4498    -5.4352 H       
  77 H77            1.9618     7.3651    -7.6572 H       
  78 H78            0.2045     7.6482    -7.6477 H       
  79 H79            0.4070     8.9850   -10.0252 H       
  80 H80            1.5262    10.3451   -10.2821 H       
  81 H81            2.1643     8.7019   -10.0347 H       
@<TRIPOS>BOND
   1    1    2 2
   2    1    3 1
   3    1   47 1
   4    2   18 1
   5    2    5 1
   6    3    4 2
   7    3   12 1
   8    4    5 1
   9    4    6 1
  10    6    7 ar
  11    6    8 ar
  12    7   33 1
  13    7   11 ar
  14    8    9 ar
  15    8   48 1
  16    9   10 ar
  17    9   49 1
  18   10   11 ar
  19   10   34 1
  20   11   50 1
  21   12   13 ar
  22   12   14 ar
  23   13   17 ar
  24   13   51 1
  25   14   15 ar
  26   14   52 1
  27   15   16 ar
  28   15   53 1
  29   16   17 ar
  30   16   20 1
  31   17   54 1
  32   18   19 2
  33   18   21 am
  34   20   38 1
  35   21   22 1
  36   21   23 1
  37   22   26 1
  38   22   55 1
  39   22   56 1
  40   23   24 1
  41   23   57 1
  42   23   58 1
  43   24   25 1
  44   24   59 1
  45   24   60 1
  46   25   26 1
  47   25   27 1
  48   25   35 1
  49   26   61 1
  50   26   62 1
  51   27   28 1
  52   27   32 1
  53   28   29 1
  54   28   63 1
  55   28   64 1
  56   29   30 1
  57   29   65 1
  58   29   66 1
  59   30   31 1
  60   30   42 1
  61   30   43 1
  62   31   32 1
  63   31   67 1
  64   31   68 1
  65   32   69 1
  66   32   70 1
  67   35   36 am
  68   35   37 2
  69   36   71 1
  70   36   72 1
  71   38   39 1
  72   38   73 1
  73   38   74 1
  74   39   40 1
  75   39   75 1
  76   39   76 1
  77   40   41 1
  78   40   77 1
  79   40   78 1
  80   41   44 2
  81   41   45 2
  82   41   46 1
  83   46   79 1
  84   46   80 1
  85   46   81 1

#	End of record

