#	Name: ASD01180021
#	Creating user name:	WinNT
#	Creation time:	15. 06. 2019 19:06

#	Modifying user name:	WinNT
#	Modification time:	15. 06. 2019 19:06

#	Program:	/corina/corina34_cracker 3.40 0067  02.08.2006

@<TRIPOS>MOLECULE
ASD01180021
  30   31    0    0    0
SMALL
NO_CHARGES


@<TRIPOS>ATOM
   1 N1             0.0655     1.2382     0.5151 N.ar    
   2 C2             0.0456    -0.0397     0.2225 C.ar    
   3 C3             1.1822    -0.6689    -0.3156 C.ar    
   4 N4             2.2874     0.0179    -0.5341 N.ar    
   5 C5             2.3248     1.3239    -0.2409 C.ar    
   6 C6             3.4865     2.0817    -0.4626 C.ar    
   7 C7             3.4965     3.4091    -0.1556 C.ar    
   8 C8             2.3662     4.0296     0.3777 C.ar    
   9 C9             1.2230     3.3246     0.6054 C.ar    
  10 C10            1.1768     1.9540     0.3008 C.ar    
  11 S11           -1.4188    -0.9775     0.5068 S.o2    
  12 O12           -0.9442    -2.2545     0.9106 O.2     
  13 O13           -2.1870    -0.1693     1.3876 O.2     
  14 C14           -2.2141    -1.0793    -1.1204 C.3     
  15 Cl15           2.4177     5.7229     0.7567 Cl      
  16 Cl16           4.9352     4.3408    -0.4310 Cl      
  17 N17            1.1413    -2.0218    -0.6186 N.pl3   
  18 C18            2.3564    -2.7105    -1.0605 C.3     
  19 C19            2.0395    -4.1835    -1.3270 C.3     
  20 H20            4.3685     1.6139    -0.8745 H       
  21 H21            0.3556     3.8175     1.0190 H       
  22 H22           -1.5433    -1.5749    -1.8223 H       
  23 H23           -3.1392    -1.6496    -1.0376 H       
  24 H24           -2.4375    -0.0746    -1.4791 H       
  25 H25            0.3081    -2.5119    -0.5380 H       
  26 H26            2.7246    -2.2468    -1.9756 H       
  27 H27            3.1181    -2.6375    -0.2843 H       
  28 H28            2.9436    -4.6959    -1.6557 H       
  29 H29            1.6714    -4.6472    -0.4119 H       
  30 H30            1.2778    -4.2565    -2.1032 H       
@<TRIPOS>BOND
   1    1    2 ar
   2    1   10 ar
   3    2    3 ar
   4    2   11 1
   5    3    4 ar
   6    3   17 1
   7    4    5 ar
   8    5    6 ar
   9    5   10 ar
  10    6    7 ar
  11    6   20 1
  12    7    8 ar
  13    7   16 1
  14    8    9 ar
  15    8   15 1
  16    9   10 ar
  17    9   21 1
  18   11   12 2
  19   11   13 2
  20   11   14 1
  21   14   22 1
  22   14   23 1
  23   14   24 1
  24   17   18 1
  25   17   25 1
  26   18   19 1
  27   18   26 1
  28   18   27 1
  29   19   28 1
  30   19   29 1
  31   19   30 1

#	End of record

