#	Name: ASD01840066
#	Creating user name:	WinNT
#	Creation time:	15. 06. 2019 19:37

#	Modifying user name:	WinNT
#	Modification time:	15. 06. 2019 19:37

#	Program:	/corina/corina34_cracker 3.40 0067  02.08.2006

@<TRIPOS>MOLECULE
ASD01840066
  50   53    0    0    0
SMALL
NO_CHARGES


@<TRIPOS>ATOM
   1 C1            -0.1508     1.3691     0.7783 C.ar    
   2 C2            -0.1172    -0.0231     0.6973 C.ar    
   3 N3            -1.2109    -0.7137     0.4498 N.ar    
   4 C4            -2.3959    -0.1228     0.2659 C.ar    
   5 C5            -2.5018     1.2700     0.3339 C.ar    
   6 C6            -1.3350     2.0243     0.6045 C.ar    
   7 S7            -3.9698    -0.8330    -0.0731 S.3     
   8 C8            -4.7524     0.7342    -0.1205 C.2     
   9 C9            -3.8608     1.7308     0.1090 C.2     
  10 Cl10           1.3022     2.2611     1.1049 Cl      
  11 O11            1.0585    -0.6747     0.8756 O.3     
  12 C12           -6.1325     0.9339    -0.3659 C.2     
  13 N13           -4.2161     3.0723     0.1276 N.pl3   
  14 N14           -6.9385    -0.1243    -0.5828 N.am    
  15 O15           -6.5914     2.0621    -0.3810 O.2     
  16 C16           -8.3665     0.0824    -0.8366 C.3     
  17 C17           -9.1071    -0.9981    -1.6273 C.3     
  18 C18           -9.3522    -0.8462    -0.1247 C.3     
  19 C19           -1.3974     3.5277     0.6878 C.3     
  20 C20            1.0310    -2.1003     0.7812 C.3     
  21 C21            2.4391    -2.6538     1.0090 C.3     
  22 N22            2.8626    -2.3636     2.3853 N.3     
  23 C23            4.1030    -3.0797     2.7169 C.3     
  24 C24            4.5396    -2.7032     4.1352 C.3     
  25 O25            3.4812    -3.0017     5.0495 O.3     
  26 C26            2.2582    -2.3206     4.7566 C.3     
  27 C27            1.7984    -2.6932     3.3446 C.3     
  28 H28           -3.6612     3.7145     0.5972 H       
  29 H29           -5.0194     3.3677    -0.3290 H       
  30 H30           -6.5731    -1.0228    -0.5707 H       
  31 H31           -8.6715     1.1173    -0.9913 H       
  32 H32           -9.8996    -0.6739    -2.3018 H       
  33 H33           -8.5319    -1.8626    -1.9585 H       
  34 H34           -8.9383    -1.6109     0.5326 H       
  35 H35          -10.3060    -0.4222     0.1893 H       
  36 H36           -1.7118     3.8234     1.6887 H       
  37 H37           -0.4122     3.9444     0.4785 H       
  38 H38           -2.1134     3.9027    -0.0436 H       
  39 H39            0.3562    -2.5015     1.5373 H       
  40 H40            0.6817    -2.3921    -0.2092 H       
  41 H41            2.4358    -3.7320     0.8495 H       
  42 H42            3.1313    -2.1851     0.3094 H       
  43 H43            3.9284    -4.1542     2.6630 H       
  44 H44            4.8842    -2.8012     2.0096 H       
  45 H45            5.4271    -3.2749     4.4067 H       
  46 H46            4.7658    -1.6377     4.1756 H       
  47 H47            1.4956    -2.6157     5.4773 H       
  48 H48            2.4181    -1.2440     4.8150 H       
  49 H49            0.8974    -2.1328     3.0954 H       
  50 H50            1.5870    -3.7617     3.3007 H       
@<TRIPOS>BOND
   1    1    2 ar
   2    1   10 1
   3    1    6 ar
   4    2    3 ar
   5    2   11 1
   6    3    4 ar
   7    4    5 ar
   8    4    7 1
   9    5    6 ar
  10    5    9 1
  11    6   19 1
  12    7    8 1
  13    8    9 2
  14    8   12 1
  15    9   13 1
  16   11   20 1
  17   12   14 am
  18   12   15 2
  19   13   28 1
  20   13   29 1
  21   14   16 1
  22   14   30 1
  23   16   17 1
  24   16   18 1
  25   16   31 1
  26   17   18 1
  27   17   32 1
  28   17   33 1
  29   18   34 1
  30   18   35 1
  31   19   36 1
  32   19   37 1
  33   19   38 1
  34   20   21 1
  35   20   39 1
  36   20   40 1
  37   21   22 1
  38   21   41 1
  39   21   42 1
  40   22   23 1
  41   22   27 1
  42   23   24 1
  43   23   43 1
  44   23   44 1
  45   24   25 1
  46   24   45 1
  47   24   46 1
  48   25   26 1
  49   26   27 1
  50   26   47 1
  51   26   48 1
  52   27   49 1
  53   27   50 1

#	End of record

