#	Name: ASD01140318
#	Creating user name:	WinNT
#	Creation time:	15. 06. 2019 19:00

#	Modifying user name:	WinNT
#	Modification time:	15. 06. 2019 19:00

#	Program:	/corina/corina34_cracker 3.40 0067  02.08.2006

@<TRIPOS>MOLECULE
ASD01140318
  46   49    0    0    0
SMALL
NO_CHARGES


@<TRIPOS>ATOM
   1 C1            -0.0169     1.3931     0.0097 C.ar    
   2 C2             0.0021    -0.0041     0.0020 C.ar    
   3 C3             1.2148    -0.6812    -0.0253 C.ar    
   4 C4             2.4233     0.0274    -0.0447 C.ar    
   5 C5             2.3884     1.4241    -0.0129 C.ar    
   6 C6             1.1680     2.0938     0.0022 C.ar    
   7 C7             3.6681    -0.7443    -0.1294 C.2     
   8 N8             4.7709    -0.5334     0.4968 N.2     
   9 C9             4.9166     0.5681     1.4554 C.3     
  10 C10            4.6885     1.8576     0.7099 C.2     
  11 N11            3.5571     2.1889     0.0382 N.pl3   
  12 C12            3.7642     3.4030    -0.5405 C.2     
  13 C13            5.5562     2.8972     0.5733 C.2     
  14 N14            4.9506     3.8293    -0.2115 N.2     
  15 C15            3.8804     0.4243     2.5719 C.3     
  16 C16            3.6523    -1.9085    -1.0480 C.ar    
  17 N17            2.5505    -2.1929    -1.7309 N.ar    
  18 C18            4.7957    -2.6908    -1.1911 C.ar    
  19 C19            4.7658    -3.7752    -2.0530 C.ar    
  20 C20            3.5924    -4.0400    -2.7426 C.ar    
  21 C21            2.4948    -3.2165    -2.5560 C.ar    
  22 C22           -1.2277    -0.7374     0.0228 C.1     
  23 C23           -2.2359    -1.3387     0.0398 C.1     
  24 C24            6.9002     2.9954     1.1647 C.2     
  25 O25            7.3295     2.0894     1.8518 O.2     
  26 O26            7.6551     4.0901     0.9443 O.3     
  27 C27            8.9703     4.1186     1.5589 C.3     
  28 C28            9.6733     5.4290     1.1990 C.3     
  29 H29           -0.9586     1.9218     0.0170 H       
  30 H30            1.2261    -1.7611    -0.0313 H       
  31 H31            1.1507     3.1736     0.0080 H       
  32 H32            5.9209     0.5589     1.8790 H       
  33 H33            3.0602     3.9275    -1.1696 H       
  34 H34            4.0310    -0.5242     3.0874 H       
  35 H35            3.9934     1.2449     3.2804 H       
  36 H36            2.8785     0.4499     2.1433 H       
  37 H37            5.6931    -2.4553    -0.6383 H       
  38 H38            5.6368    -4.3999    -2.1849 H       
  39 H39            3.5365    -4.8775    -3.4221 H       
  40 H40            1.5791    -3.4200    -3.0913 H       
  41 H41           -3.1377    -1.8764     0.0550 H       
  42 H42            8.8670     4.0472     2.6417 H       
  43 H43            9.5602     3.2777     1.1940 H       
  44 H44            9.7766     5.5004     0.1162 H       
  45 H45            9.0834     6.2699     1.5639 H       
  46 H46           10.6606     5.4504     1.6604 H       
@<TRIPOS>BOND
   1    1    2 ar
   2    1    6 ar
   3    1   29 1
   4    2    3 ar
   5    2   22 1
   6    3    4 ar
   7    3   30 1
   8    4    5 ar
   9    4    7 1
  10    5    6 ar
  11    5   11 1
  12    6   31 1
  13    7    8 2
  14    7   16 1
  15    8    9 1
  16    9   10 1
  17    9   15 1
  18    9   32 1
  19   10   11 1
  20   10   13 2
  21   11   12 1
  22   12   14 2
  23   12   33 1
  24   13   14 1
  25   13   24 1
  26   15   34 1
  27   15   35 1
  28   15   36 1
  29   16   17 ar
  30   16   18 ar
  31   17   21 ar
  32   18   19 ar
  33   18   37 1
  34   19   20 ar
  35   19   38 1
  36   20   21 ar
  37   20   39 1
  38   21   40 1
  39   22   23 3
  40   23   41 1
  41   24   25 2
  42   24   26 1
  43   26   27 1
  44   27   28 1
  45   27   42 1
  46   27   43 1
  47   28   44 1
  48   28   45 1
  49   28   46 1

#	End of record

