#	Name: ASD04882463
#	Creating user name:	WinNT
#	Creation time:	15. 06. 2019 20:54

#	Modifying user name:	WinNT
#	Modification time:	15. 06. 2019 20:54

#	Program:	/corina/corina34_cracker 3.40 0067  02.08.2006

@<TRIPOS>MOLECULE
ASD04882463
  87   91    0    0    0
SMALL
NO_CHARGES


@<TRIPOS>ATOM
   1 C1            -0.0214     1.4011    -0.0090 C.ar    
   2 C2            -0.0114     0.0035    -0.0049 C.ar    
   3 C3            -1.2092    -0.7021    -0.0164 C.ar    
   4 C4            -2.4095    -0.0271    -0.0319 C.ar    
   5 C5            -2.4267     1.3705    -0.0356 C.ar    
   6 C6            -1.2240     2.0824    -0.0182 C.ar    
   7 N7             1.1999    -0.6830     0.0102 N.3     
   8 C8             1.3069    -1.5361     1.2020 C.3     
   9 C9             1.3728    -1.4732    -1.2167 C.3     
  10 C10            2.7467    -2.1473    -1.1968 C.3     
  11 N11            2.8536    -3.0004    -0.0050 N.3     
  12 C12            2.6808    -2.2102     1.2219 C.3     
  13 C13           -3.7127     2.0934    -0.0522 C.2     
  14 O14           -3.7267     3.3092    -0.0554 O.2     
  15 N15           -4.8719     1.4060    -0.0638 N.am    
  16 N16            1.1864     2.1110     0.0021 N.am    
  17 C17            4.0687    -3.6891     0.0102 C.ar    
  18 C18            4.0815    -5.0779     0.0143 C.ar    
  19 C19            5.2849    -5.7558     0.0288 C.ar    
  20 C20            6.4758    -5.0534     0.0398 C.ar    
  21 C21            6.4666    -3.6704     0.0357 C.ar    
  22 C22            5.2672    -2.9864     0.0154 C.ar    
  23 C23           -6.1489     2.1238    -0.0803 C.3     
  24 C24           -7.3002     1.1162    -0.0910 C.3     
  25 C25           -8.6339     1.8659    -0.1082 C.3     
  26 C26            1.2294     3.3599     0.5068 C.2     
  27 O27            0.2071     3.8982     0.8851 O.2     
  28 C28            2.5196     4.0753     0.6002 C.ar    
  29 C29            2.5677     5.3687     1.1223 C.ar    
  30 C30            2.7840    -5.8444     0.0034 C.3     
  31 N31           -9.7363     0.9011    -0.1184 N.am    
  32 C32            3.7752     6.0308     1.2067 C.ar    
  33 C33            4.9366     5.4156     0.7748 C.ar    
  34 C34            4.8959     4.1335     0.2557 C.ar    
  35 C35            3.6962     3.4579     0.1719 C.ar    
  36 C36            3.8291     7.4275     1.7702 C.3     
  37 C37            3.3304     7.4174     3.1551 C.1     
  38 C38            5.2744     7.9293     1.7522 C.3     
  39 N39            2.9455     7.4096     4.2239 N.1     
  40 C40            2.9569     8.3541     0.9208 C.3     
  41 C41          -10.3734     0.3587     1.0874 C.3     
  42 C42          -11.1406    -0.8975     0.6187 C.3     
  43 C43          -11.3953    -0.5736    -0.8717 C.3     
  44 C44          -10.2981     0.4031    -1.2335 C.2     
  45 O45           -9.9684     0.6896    -2.3649 O.2     
  46 H46           -1.1984    -1.7820    -0.0136 H       
  47 H47           -3.3383    -0.5781    -0.0415 H       
  48 H48           -1.2342     3.1623    -0.0207 H       
  49 H49            1.1880    -0.9262     2.0976 H       
  50 H50            0.5282    -2.2983     1.1748 H       
  51 H51            0.5948    -2.2347    -1.2715 H       
  52 H52            1.3020    -0.8175    -2.0845 H       
  53 H53            2.8655    -2.7572    -2.0924 H       
  54 H54            3.5254    -1.3851    -1.1695 H       
  55 H55            3.4587    -1.4487     1.2767 H       
  56 H56            2.7516    -2.8660     2.0898 H       
  57 H57           -4.8608     0.4361    -0.0612 H       
  58 H58            1.9917     1.7035    -0.3535 H       
  59 H59            5.2956    -6.8358     0.0320 H       
  60 H60            7.4153    -5.5859     0.0518 H       
  61 H61            7.3986    -3.1248     0.0446 H       
  62 H62            5.2607    -1.9065     0.0119 H       
  63 H63           -6.2241     2.7520     0.8074 H       
  64 H64           -6.2037     2.7475    -0.9725 H       
  65 H65           -7.2251     0.4880    -0.9786 H       
  66 H66           -7.2455     0.4925     0.8013 H       
  67 H67           -8.7091     2.4940     0.7794 H       
  68 H68           -8.6886     2.4896    -1.0004 H       
  69 H69            1.6616     5.8504     1.4592 H       
  70 H70            2.4816    -6.0321    -1.0269 H       
  71 H71            2.9186    -6.7940     0.5213 H       
  72 H72            2.0134    -5.2614     0.5078 H       
  73 H73            5.8792     5.9384     0.8427 H       
  74 H74            5.8061     3.6590    -0.0801 H       
  75 H75            3.6658     2.4573    -0.2335 H       
  76 H76            5.6436     7.9368     0.7267 H       
  77 H77            5.3133     8.9395     2.1598 H       
  78 H78            5.8957     7.2692     2.3573 H       
  79 H79            1.9273     7.9966     0.9336 H       
  80 H80            2.9959     9.3643     1.3283 H       
  81 H81            3.3262     8.3616    -0.1047 H       
  82 H82           -9.6171     0.0861     1.8234 H       
  83 H83          -11.0653     1.0879     1.5088 H       
  84 H84          -10.5262    -1.7917     0.7241 H       
  85 H85          -12.0802    -1.0055     1.1605 H       
  86 H86          -11.3202    -1.4772    -1.4767 H       
  87 H87          -12.3725    -0.1080    -0.9993 H       
@<TRIPOS>BOND
   1    1    2 ar
   2    1   16 1
   3    1    6 ar
   4    2    3 ar
   5    2    7 1
   6    3    4 ar
   7    3   46 1
   8    4    5 ar
   9    4   47 1
  10    5    6 ar
  11    5   13 1
  12    6   48 1
  13    7    8 1
  14    7    9 1
  15    8   12 1
  16    8   49 1
  17    8   50 1
  18    9   10 1
  19    9   51 1
  20    9   52 1
  21   10   11 1
  22   10   53 1
  23   10   54 1
  24   11   12 1
  25   11   17 1
  26   12   55 1
  27   12   56 1
  28   13   14 2
  29   13   15 am
  30   15   23 1
  31   15   57 1
  32   16   26 am
  33   16   58 1
  34   17   18 ar
  35   17   22 ar
  36   18   19 ar
  37   18   30 1
  38   19   20 ar
  39   19   59 1
  40   20   21 ar
  41   20   60 1
  42   21   22 ar
  43   21   61 1
  44   22   62 1
  45   23   24 1
  46   23   63 1
  47   23   64 1
  48   24   25 1
  49   24   65 1
  50   24   66 1
  51   25   31 1
  52   25   67 1
  53   25   68 1
  54   26   28 1
  55   26   27 2
  56   28   29 ar
  57   28   35 ar
  58   29   32 ar
  59   29   69 1
  60   30   70 1
  61   30   71 1
  62   30   72 1
  63   31   41 1
  64   31   44 am
  65   32   33 ar
  66   32   36 1
  67   33   34 ar
  68   33   73 1
  69   34   35 ar
  70   34   74 1
  71   35   75 1
  72   36   37 1
  73   36   38 1
  74   36   40 1
  75   37   39 3
  76   38   76 1
  77   38   77 1
  78   38   78 1
  79   40   79 1
  80   40   80 1
  81   40   81 1
  82   41   42 1
  83   41   82 1
  84   41   83 1
  85   42   43 1
  86   42   84 1
  87   42   85 1
  88   43   44 1
  89   43   86 1
  90   43   87 1
  91   44   45 2

#	End of record

