#	Name: ASD09810002
#	Creating user name:	WinNT
#	Creation time:	15. 06. 2019 21:24

#	Modifying user name:	WinNT
#	Modification time:	15. 06. 2019 21:24

#	Program:	/corina/corina34_cracker 3.40 0067  02.08.2006

@<TRIPOS>MOLECULE
ASD09810002
  62   64    0    0    0
SMALL
NO_CHARGES


@<TRIPOS>ATOM
   1 C1            -0.1745     1.3629    -0.6643 C.3     
   2 N2            -0.0706    -0.0711    -0.3653 N.3     
   3 C3             0.8524    -0.7409    -1.2904 C.3     
   4 C4             2.2534    -0.1446    -1.1362 C.3     
   5 C5             2.2000     1.3560    -1.4361 C.3     
   6 C6             1.1958     2.0219    -0.4913 C.3     
   7 C7            -1.3930    -0.7104    -0.3863 C.3     
   8 C8            -1.2329    -2.2199    -0.1949 C.3     
   9 C9            -2.2526    -0.1412     0.7443 C.3     
  10 O10            3.4941     1.9288    -1.2384 O.3     
  11 C11            3.7764     3.0683    -1.9251 C.ar    
  12 C12            2.7945     3.6821    -2.6783 C.ar    
  13 C13            5.0550     3.6202    -1.8642 C.ar    
  14 C14            5.3464     4.7834    -2.5640 C.ar    
  15 C15            4.3729     5.3976    -3.3214 C.ar    
  16 C16            3.0880     4.8527    -3.3826 C.ar    
  17 C17            2.0440     5.5095    -4.1935 C.2     
  18 N18            2.3299     6.6360    -4.8759 N.am    
  19 O19            0.9261     5.0342    -4.2458 O.2     
  20 C20            1.2937     7.2878    -5.6807 C.3     
  21 C21            1.6224     8.7748    -5.8279 C.3     
  22 O22            6.0177     3.0191    -1.1184 O.3     
  23 C23            7.3055     3.6380    -1.1006 C.3     
  24 C24            1.2390     6.6381    -7.0648 C.3     
  25 C25            1.5557     9.4402    -4.4774 C.ar    
  26 N26            0.4584     9.3449    -3.7475 N.ar    
  27 C27            0.4001     9.9280    -2.5630 C.ar    
  28 C28            1.4877    10.6385    -2.0874 C.ar    
  29 N29            2.5852    10.7339    -2.8174 N.ar    
  30 C30            2.6457    10.1461    -3.9992 C.ar    
  31 H31           -0.5145     1.4961    -1.6913 H       
  32 H32           -0.8885     1.8252     0.0173 H       
  33 H33            0.8843    -1.8065    -1.0636 H       
  34 H34            0.5076    -0.5978    -2.3145 H       
  35 H35            2.6045    -0.2995    -0.1159 H       
  36 H36            2.9348    -0.6312    -1.8340 H       
  37 H37            1.8862     1.5101    -2.4686 H       
  38 H38            1.1217     3.0833    -0.7284 H       
  39 H39            1.5303     1.9011     0.5391 H       
  40 H40           -1.8760    -0.5147    -1.3437 H       
  41 H41           -0.7499    -2.4155     0.7625 H       
  42 H42           -2.2142    -2.6942    -0.2104 H       
  43 H43           -0.6205    -2.6253    -1.0003 H       
  44 H44           -2.3667     0.9342     0.6079 H       
  45 H45           -3.2339    -0.6156     0.7287 H       
  46 H46           -1.7696    -0.3369     1.7016 H       
  47 H47            1.8023     3.2579    -2.7231 H       
  48 H48            6.3382     5.2079    -2.5144 H       
  49 H49            4.6022     6.3025    -3.8645 H       
  50 H50            3.2217     7.0152    -4.8341 H       
  51 H51            0.3276     7.1763    -5.1885 H       
  52 H52            2.6259     8.8861    -6.2386 H       
  53 H53            0.9014     9.2416    -6.4990 H       
  54 H54            7.7033     3.6785    -2.1146 H       
  55 H55            7.2171     4.6495    -0.7043 H       
  56 H56            7.9786     3.0580    -0.4692 H       
  57 H57            1.0048     5.5787    -6.9599 H       
  58 H58            0.4681     7.1231    -7.6636 H       
  59 H59            2.2051     6.7496    -7.5570 H       
  60 H60           -0.4968     9.8501    -1.9664 H       
  61 H61            1.4397    11.1156    -1.1197 H       
  62 H62            3.5426    10.2240    -4.5958 H       
@<TRIPOS>BOND
   1    1    2 1
   2    1    6 1
   3    1   31 1
   4    1   32 1
   5    2    3 1
   6    2    7 1
   7    3    4 1
   8    3   33 1
   9    3   34 1
  10    4    5 1
  11    4   35 1
  12    4   36 1
  13    5    6 1
  14    5   10 1
  15    5   37 1
  16    6   38 1
  17    6   39 1
  18    7    8 1
  19    7    9 1
  20    7   40 1
  21    8   41 1
  22    8   42 1
  23    8   43 1
  24    9   44 1
  25    9   45 1
  26    9   46 1
  27   10   11 1
  28   11   12 ar
  29   11   13 ar
  30   12   16 ar
  31   12   47 1
  32   13   14 ar
  33   13   22 1
  34   14   15 ar
  35   14   48 1
  36   15   16 ar
  37   15   49 1
  38   16   17 1
  39   17   18 am
  40   17   19 2
  41   18   20 1
  42   18   50 1
  43   20   21 1
  44   20   24 1
  45   20   51 1
  46   21   25 1
  47   21   52 1
  48   21   53 1
  49   22   23 1
  50   23   54 1
  51   23   55 1
  52   23   56 1
  53   24   57 1
  54   24   58 1
  55   24   59 1
  56   25   26 ar
  57   25   30 ar
  58   26   27 ar
  59   27   28 ar
  60   27   60 1
  61   28   29 ar
  62   28   61 1
  63   29   30 ar
  64   30   62 1

#	End of record

