#	Name: ASD05313085
#	Creating user name:	WinNT
#	Creation time:	15. 06. 2019 20:58

#	Modifying user name:	WinNT
#	Modification time:	15. 06. 2019 20:58

#	Program:	/corina/corina34_cracker 3.40 0067  02.08.2006

@<TRIPOS>MOLECULE
ASD05313085
  39   42    0    0    0
SMALL
NO_CHARGES


@<TRIPOS>ATOM
   1 C1            -0.0639     1.4021     0.0868 C.2     
   2 C2            -0.0028    -0.1064     0.0583 C.3     
   3 N3             1.0404     2.2027     0.0867 N.pl3   
   4 N4             1.3958    -0.4742    -0.2331 N.am    
   5 C5             2.4652     0.2568     0.4631 C.3     
   6 C6             2.4237     1.7322     0.0469 C.3     
   7 N7            -0.7420     3.4074     0.1431 N.2     
   8 N8            -1.1087     2.1721     0.1204 N.2     
   9 C9             0.5750     3.4825     0.1257 C.2     
  10 N10            0.9178     5.9944     0.0981 N.pl3   
  11 N11            2.0218     6.8548     0.1422 N.2     
  12 C12            3.1132     6.1361     0.2148 C.2     
  13 C13            2.7609     4.7871     0.2205 C.2     
  14 C14            1.3863     4.7134     0.1471 C.2     
  15 C15           -0.4886     6.3972     0.0198 C.3     
  16 C16            1.6855    -1.4533    -1.1128 C.2     
  17 O17            2.8408    -1.6699    -1.4226 O.2     
  18 C18            0.5985    -2.2636    -1.7008 C.ar    
  19 C19            0.5029    -2.4091    -3.0871 C.ar    
  20 C20           -0.5167    -3.1687    -3.6294 C.ar    
  21 C21           -1.4406    -3.7830    -2.8017 C.ar    
  22 C22           -1.3503    -3.6414    -1.4283 C.ar    
  23 C23           -0.3339    -2.8918    -0.8735 C.ar    
  24 Cl24          -0.6390    -3.3521    -5.3514 Cl      
  25 Cl25           1.6609    -1.6379    -4.1253 Cl      
  26 H26           -0.2995    -0.5091     1.0268 H       
  27 H27           -0.6591    -0.4907    -0.7225 H       
  28 H28            2.3182     0.1781     1.5403 H       
  29 H29            3.4318    -0.1698     0.1951 H       
  30 H30            2.8151     1.8368    -0.9650 H       
  31 H31            3.0289     2.3219     0.7354 H       
  32 H32            4.1201     6.5238     0.2618 H       
  33 H33            3.4422     3.9507     0.2726 H       
  34 H34           -0.7614     6.5635    -1.0224 H       
  35 H35           -1.1158     5.6102     0.4384 H       
  36 H36           -0.6349     7.3177     0.5849 H       
  37 H37           -2.2357    -4.3752    -3.2300 H       
  38 H38           -2.0748    -4.1233    -0.7886 H       
  39 H39           -0.2628    -2.7867     0.1990 H       
@<TRIPOS>BOND
   1    1    2 1
   2    1    3 1
   3    1    8 2
   4    2    4 1
   5    2   26 1
   6    2   27 1
   7    3    6 1
   8    3    9 1
   9    4    5 1
  10    4   16 am
  11    5    6 1
  12    5   28 1
  13    5   29 1
  14    6   30 1
  15    6   31 1
  16    7    8 1
  17    7    9 2
  18    9   14 1
  19   10   11 1
  20   10   14 1
  21   10   15 1
  22   11   12 2
  23   12   13 1
  24   12   32 1
  25   13   14 2
  26   13   33 1
  27   15   34 1
  28   15   35 1
  29   15   36 1
  30   16   17 2
  31   16   18 1
  32   18   19 ar
  33   18   23 ar
  34   19   20 ar
  35   19   25 1
  36   20   21 ar
  37   20   24 1
  38   21   22 ar
  39   21   37 1
  40   22   23 ar
  41   22   38 1
  42   23   39 1

#	End of record

