#	Name: ASD01720021
#	Creating user name:	WinNT
#	Creation time:	15. 06. 2019 19:23

#	Modifying user name:	WinNT
#	Modification time:	15. 06. 2019 19:23

#	Program:	/corina/corina34_cracker 3.40 0067  02.08.2006

@<TRIPOS>MOLECULE
ASD01720021
  42   44    0    0    0
SMALL
NO_CHARGES


@<TRIPOS>ATOM
   1 P1            -0.0180     1.4758     0.0102 P.3     
   2 O2             0.0021    -0.0041     0.0020 O.2     
   3 O3             1.4924     2.0330    -0.0013 O.3     
   4 O4            -0.7967     2.0091    -1.2942 O.3     
   5 O5            -0.7716     1.9950     1.3348 O.3     
   6 P6            -0.8355     1.5534    -2.8378 P.3     
   7 O7             0.5284     1.1832    -3.2774 O.2     
   8 O8            -1.8139     0.2849    -2.9985 O.3     
   9 O9            -1.3795     2.7688    -3.7427 O.3     
  10 C10           -0.3850     1.6043     2.6538 C.3     
  11 O11           -2.6517     1.7682     3.5484 O.3     
  12 C12           -1.3055     2.2756     3.6750 C.3     
  13 C13           -0.8769     1.9035     5.1117 C.3     
  14 C14           -2.2118     1.7590     5.8762 C.3     
  15 C15           -3.2890     2.0610     4.8109 C.3     
  16 O16           -2.2831     2.7071     6.9430 O.3     
  17 O17           -0.0829     2.9452     5.6831 O.3     
  18 N18           -5.7077    -0.5922     5.0387 N.2     
  19 C19           -4.5200    -0.1416     4.7509 C.2     
  20 N20           -4.4556     1.1965     5.0059 N.pl3   
  21 C21           -5.6840     1.5847     5.4796 C.ar    
  22 N22           -6.2124     2.7345     5.8853 N.ar    
  23 C23           -7.4617     2.7906     6.2969 C.ar    
  24 N24           -8.2455     1.7286     6.3293 N.ar    
  25 C25           -7.8047     0.5358     5.9427 C.ar    
  26 C26           -6.4777     0.4253     5.4951 C.ar    
  27 Br27          -3.0953    -1.1884     4.0797 Br      
  28 N28           -8.6340    -0.5719     5.9802 N.pl3   
  29 H29            1.5557     2.9980     0.0033 H       
  30 H30           -2.7266     0.4555    -2.7283 H       
  31 H31           -1.4295     2.5647    -4.6866 H       
  32 H32           -0.4642     0.5214     2.7499 H       
  33 H33            0.6450     1.9108     2.8364 H       
  34 H34           -1.2939     3.3577     3.5438 H       
  35 H35           -0.3308     0.9602     5.1152 H       
  36 H36           -2.3257     0.7443     6.2575 H       
  37 H37           -3.5817     3.1101     4.8539 H       
  38 H38           -1.5913     2.6010     7.6103 H       
  39 H39            0.2137     2.7638     6.5854 H       
  40 H40           -7.8602     3.7409     6.6204 H       
  41 H41           -9.5484    -0.4829     6.2913 H       
  42 H42           -8.3006    -1.4372     5.6955 H       
@<TRIPOS>BOND
   1    1    2 2
   2    1    3 1
   3    1    4 1
   4    1    5 1
   5    3   29 1
   6    4    6 1
   7    5   10 1
   8    6    7 2
   9    6    8 1
  10    6    9 1
  11    8   30 1
  12    9   31 1
  13   10   12 1
  14   10   32 1
  15   10   33 1
  16   11   12 1
  17   11   15 1
  18   12   13 1
  19   12   34 1
  20   13   14 1
  21   13   17 1
  22   13   35 1
  23   14   15 1
  24   14   16 1
  25   14   36 1
  26   15   20 1
  27   15   37 1
  28   16   38 1
  29   17   39 1
  30   18   19 2
  31   18   26 1
  32   19   20 1
  33   19   27 1
  34   20   21 1
  35   21   22 ar
  36   21   26 ar
  37   22   23 ar
  38   23   24 ar
  39   23   40 1
  40   24   25 ar
  41   25   26 ar
  42   25   28 1
  43   28   41 1
  44   28   42 1

#	End of record

