#	Name: ASD01840312
#	Creating user name:	WinNT
#	Creation time:	15. 06. 2019 19:37

#	Modifying user name:	WinNT
#	Modification time:	15. 06. 2019 19:37

#	Program:	/corina/corina34_cracker 3.40 0067  02.08.2006

@<TRIPOS>MOLECULE
ASD01840312
  60   65    0    0    0
SMALL
NO_CHARGES


@<TRIPOS>ATOM
   1 O1             0.0021    -0.0041     0.0020 O.2     
   2 C2            -0.0144     1.2113     0.0087 C.2     
   3 N3            -1.1275     1.9643     0.0292 N.am    
   4 C4            -2.5012     1.4555     0.0473 C.3     
   5 C5            -2.9576     1.2706     1.4959 C.3     
   6 C6            -4.1265     2.1291     1.9834 C.3     
   7 C7            -4.3292     0.6341     1.7287 C.3     
   8 C8            -0.7407     3.3795     0.0309 C.3     
   9 C9             0.7676     3.4055     0.0087 C.ar    
  10 C10            1.6904     4.4272     0.0000 C.ar    
  11 C11            3.0427     4.1409    -0.0224 C.ar    
  12 C12            3.4761     2.8150    -0.0358 C.ar    
  13 C13            2.5475     1.7783    -0.0267 C.ar    
  14 C14            1.1851     2.0712     0.0019 C.ar    
  15 C15            4.9266     2.5100    -0.0604 C.ar    
  16 N16            5.3845     1.4485     0.5811 N.ar    
  17 C17            6.6758     1.1399     0.5837 C.ar    
  18 C18            7.6040     1.9316    -0.0958 C.ar    
  19 C19            7.1686     3.0513    -0.7801 C.ar    
  20 C20            5.8043     3.3491    -0.7709 C.ar    
  21 C21            5.2892     4.5350    -1.4945 C.2     
  22 C22            4.2029     4.5566    -2.3928 C.2     
  23 N23            4.0569     5.7815    -2.8228 N.2     
  24 N24            5.0343     6.5843    -2.2227 N.pl3   
  25 C25            5.2146     8.0222    -2.4376 C.3     
  26 C26            5.3749     8.2981    -3.9339 C.3     
  27 C27            4.0340     8.0682    -4.6743 C.3     
  28 C28            4.1936     8.9352    -5.9478 C.3     
  29 C29            4.9397    10.1934    -5.4578 C.3     
  30 C30            5.6907     9.7884    -4.1773 C.3     
  31 C31            5.7764     5.8086    -1.4085 C.2     
  32 C32            7.1231    -0.0206     1.2935 C.1     
  33 N33            7.4778    -0.9413     1.8566 N.1     
  34 H34           -3.1587     2.1667    -0.4528 H       
  35 H35           -2.5408     0.4975    -0.4711 H       
  36 H36           -2.1682     1.0413     2.2118 H       
  37 H37           -4.1063     2.4648     3.0202 H       
  38 H38           -4.5704     2.8255     1.2721 H       
  39 H39           -4.9066     0.3470     0.8499 H       
  40 H40           -4.4425    -0.0137     2.5980 H       
  41 H41           -1.1369     3.8772    -0.8542 H       
  42 H42           -1.1104     3.8677     0.9327 H       
  43 H43            1.3571     5.4544     0.0104 H       
  44 H44            3.7643     4.9444    -0.0298 H       
  45 H45            2.8813     0.7512    -0.0371 H       
  46 H46            8.6522     1.6718    -0.0867 H       
  47 H47            7.8673     3.6793    -1.3128 H       
  48 H48            3.5973     3.7085    -2.6764 H       
  49 H49            4.3434     8.5579    -2.0606 H       
  50 H50            6.1057     8.3598    -1.9083 H       
  51 H51            6.1585     7.6683    -4.3552 H       
  52 H52            3.9122     7.0170    -4.9354 H       
  53 H53            3.1953     8.4173    -4.0719 H       
  54 H54            4.7852     8.4082    -6.6964 H       
  55 H55            3.2173     9.2036    -6.3515 H       
  56 H56            5.6478    10.5268    -6.2164 H       
  57 H57            4.2268    10.9879    -5.2370 H       
  58 H58            5.3424    10.3863    -3.3352 H       
  59 H59            6.7634     9.9251    -4.3146 H       
  60 H60            6.6073     6.1340    -0.8001 H       
@<TRIPOS>BOND
   1    1    2 2
   2    2   14 1
   3    2    3 am
   4    3    4 1
   5    3    8 1
   6    4    5 1
   7    4   34 1
   8    4   35 1
   9    5    7 1
  10    5    6 1
  11    5   36 1
  12    6    7 1
  13    6   37 1
  14    6   38 1
  15    7   39 1
  16    7   40 1
  17    8    9 1
  18    8   41 1
  19    8   42 1
  20    9   14 ar
  21    9   10 ar
  22   10   11 ar
  23   10   43 1
  24   11   12 ar
  25   11   44 1
  26   12   13 ar
  27   12   15 1
  28   13   14 ar
  29   13   45 1
  30   15   20 ar
  31   15   16 ar
  32   16   17 ar
  33   17   18 ar
  34   17   32 1
  35   18   19 ar
  36   18   46 1
  37   19   20 ar
  38   19   47 1
  39   20   21 1
  40   21   31 2
  41   21   22 1
  42   22   23 2
  43   22   48 1
  44   23   24 1
  45   24   25 1
  46   24   31 1
  47   25   26 1
  48   25   49 1
  49   25   50 1
  50   26   30 1
  51   26   27 1
  52   26   51 1
  53   27   28 1
  54   27   52 1
  55   27   53 1
  56   28   29 1
  57   28   54 1
  58   28   55 1
  59   29   30 1
  60   29   56 1
  61   29   57 1
  62   30   58 1
  63   30   59 1
  64   31   60 1
  65   32   33 3

#	End of record

