#	Name: ASD02038048
#	Creating user name:	WinNT
#	Creation time:	15. 06. 2019 20:16

#	Modifying user name:	WinNT
#	Modification time:	15. 06. 2019 20:16

#	Program:	/corina/corina34_cracker 3.40 0067  02.08.2006

@<TRIPOS>MOLECULE
ASD02038048
  47   50    0    0    0
SMALL
NO_CHARGES


@<TRIPOS>ATOM
   1 N1            -0.0169     1.3952     0.0097 N.am    
   2 N2             0.9997     3.4672    -0.3406 N.am    
   3 C3             1.0902     2.1276    -0.2236 C.2     
   4 C4             0.7420     6.8406    -0.8332 C.3     
   5 O5            -0.3110     7.4905    -1.5479 O.3     
   6 C6            -0.4713     8.8238    -1.3336 C.ar    
   7 C7            -1.4742     9.5168    -1.9951 C.ar    
   8 C8             0.3646     9.4895    -0.4494 C.ar    
   9 C9             0.2018    10.8438    -0.2317 C.ar    
  10 C10           -0.7973    11.5380    -0.8977 C.ar    
  11 C11           -1.6370    10.8712    -1.7774 C.ar    
  12 O12            2.1706     1.5798    -0.3287 O.2     
  13 O13           -0.9578    12.8712    -0.6831 O.3     
  14 C14            0.0606    -0.0019     0.0341 C.ar    
  15 C15            1.1894    -0.6272     0.5471 C.ar    
  16 C16            1.2626    -2.0063     0.5702 C.ar    
  17 C17            0.2134    -2.7641     0.0832 C.ar    
  18 C18           -0.9120    -2.1443    -0.4282 C.ar    
  19 C19           -0.9935    -0.7657    -0.4493 C.ar    
  20 C20            1.9362     4.5745    -0.5853 C.3     
  21 C21            0.7670     5.3556    -1.2009 C.3     
  22 C22           -0.0798     4.4644    -0.2860 C.3     
  23 C23            0.2969    -4.2685     0.1095 C.3     
  24 C24           -0.7694    -5.0214     0.9077 C.3     
  25 C25           -0.7967    -5.0496    -0.6218 C.3     
  26 H26           -0.8666     1.8366     0.1647 H       
  27 H27            1.6960     7.2965    -1.0977 H       
  28 H28            0.5732     6.9468     0.2384 H       
  29 H29           -2.1277     8.9977    -2.6805 H       
  30 H30            1.1425     8.9488     0.0692 H       
  31 H31            0.8522    11.3620     0.4574 H       
  32 H32           -2.4147    11.4118    -2.2963 H       
  33 H33           -0.4434    13.4306    -1.2811 H       
  34 H34            2.0093    -0.0359     0.9272 H       
  35 H35            2.1404    -2.4932     0.9686 H       
  36 H36           -1.7297    -2.7390    -0.8077 H       
  37 H37           -1.8729    -0.2823    -0.8485 H       
  38 H38            2.3253     5.0239     0.3283 H       
  39 H39            2.7199     4.3297    -1.3023 H       
  40 H40            0.6162     5.1701    -2.2643 H       
  41 H41           -1.0084     4.1275    -0.7467 H       
  42 H42           -0.2300     4.8825     0.7093 H       
  43 H43            1.3047    -4.6837     0.0996 H       
  44 H44           -0.4632    -5.9320     1.4226 H       
  45 H45           -1.5313    -4.4285     1.4138 H       
  46 H46           -1.5766    -4.4753    -1.1219 H       
  47 H47           -0.5085    -5.9789    -1.1132 H       
@<TRIPOS>BOND
   1    1   14 1
   2    1    3 am
   3    1   26 1
   4    2    3 am
   5    2   20 1
   6    2   22 1
   7    3   12 2
   8    4    5 1
   9    4   21 1
  10    4   27 1
  11    4   28 1
  12    5    6 1
  13    6    7 ar
  14    6    8 ar
  15    7   11 ar
  16    7   29 1
  17    8    9 ar
  18    8   30 1
  19    9   10 ar
  20    9   31 1
  21   10   11 ar
  22   10   13 1
  23   11   32 1
  24   13   33 1
  25   14   15 ar
  26   14   19 ar
  27   15   16 ar
  28   15   34 1
  29   16   17 ar
  30   16   35 1
  31   17   18 ar
  32   17   23 1
  33   18   19 ar
  34   18   36 1
  35   19   37 1
  36   20   21 1
  37   20   38 1
  38   20   39 1
  39   21   22 1
  40   21   40 1
  41   22   41 1
  42   22   42 1
  43   23   24 1
  44   23   25 1
  45   23   43 1
  46   24   25 1
  47   24   44 1
  48   24   45 1
  49   25   46 1
  50   25   47 1

#	End of record

