#	Name: ASD05430112
#	Creating user name:	WinNT
#	Creation time:	15. 06. 2019 20:59

#	Modifying user name:	WinNT
#	Modification time:	15. 06. 2019 20:59

#	Program:	/corina/corina34_cracker 3.40 0067  02.08.2006

@<TRIPOS>MOLECULE
ASD05430112
  65   71    0    0    0
SMALL
NO_CHARGES


@<TRIPOS>ATOM
   1 F1             7.9100     6.8994    -4.0440 F       
   2 C2             0.1871     1.1573    -1.0659 C.ar    
   3 C3             0.0190    -0.0151    -0.3190 C.ar    
   4 C4             1.0345    -0.4750     0.5061 C.ar    
   5 C5             2.2228     0.2156     0.6028 C.ar    
   6 C6             2.4023     1.3911    -0.1354 C.ar    
   7 C7             1.3787     1.8527    -0.9613 C.ar    
   8 C8             4.8878    -0.0277    -0.1192 C.3     
   9 C9             4.8360     1.4743     0.0371 C.2     
  10 C10            3.6675     2.1376    -0.0396 C.2     
  11 C11            6.3007    -0.4717    -0.5024 C.3     
  12 C12            7.0832     0.5820    -1.2927 C.3     
  13 N13            7.1989     1.7931    -0.4816 N.pl3   
  14 C14            6.0999     2.1927     0.2762 C.2     
  15 C15            8.2819     3.7566    -1.4116 C.ar    
  16 C16            9.3615     4.1415    -2.1846 C.ar    
  17 C17            9.2377     5.1964    -3.0688 C.ar    
  18 C18            8.0319     5.8678    -3.1803 C.ar    
  19 C19            6.9514     5.4814    -2.4055 C.ar    
  20 C20            7.0775     4.4262    -1.5220 C.ar    
  21 N21           -1.1842    -0.7285    -0.4055 N.pl3   
  22 C22           -1.3194    -2.0733    -0.6351 C.2     
  23 C23           -2.6400    -2.3374    -0.6390 C.2     
  24 N24           -3.2973    -1.1893    -0.4183 N.2     
  25 C25           -2.4363    -0.2193    -0.2717 C.2     
  26 C26           -3.2702    -3.6893    -0.8541 C.3     
  27 C27            8.4163     2.6022    -0.4523 C.3     
  28 C28            8.6082     3.1342     0.9723 C.3     
  29 O29            7.4249     3.7933     1.4114 O.3     
  30 N30            6.2051     3.1364     1.1531 N.2     
  31 C31            7.0920    -1.0318     0.6834 C.3     
  32 S32            7.9624    -2.1639    -0.4354 S.o2    
  33 C33            6.3311    -1.8524    -1.1652 C.3     
  34 O34            9.0144    -1.5298    -1.1499 O.2     
  35 O35            8.0852    -3.4759     0.0964 O.2     
  36 C36            1.2636     3.0736    -1.8531 C.3     
  37 C37           -0.2593     3.1320    -2.1200 C.3     
  38 O38           -0.6649     1.7648    -1.9381 O.3     
  39 H39            0.8926    -1.3807     1.0772 H       
  40 H40            3.0113    -0.1479     1.2451 H       
  41 H41            4.6043    -0.4986     0.8221 H       
  42 H42            4.1895    -0.3339    -0.8981 H       
  43 H43            3.6579     3.2175    -0.0308 H       
  44 H44            8.0779     0.2008    -1.5236 H       
  45 H45            6.5545     0.8114    -2.2179 H       
  46 H46           10.3020     3.6179    -2.0973 H       
  47 H47           10.0813     5.4971    -3.6724 H       
  48 H48            6.0104     6.0044    -2.4916 H       
  49 H49            6.2348     4.1246    -0.9176 H       
  50 H50           -0.5204    -2.7843    -0.7847 H       
  51 H51           -2.6790     0.8159    -0.0826 H       
  52 H52           -3.3898    -4.1913     0.1060 H       
  53 H53           -4.2462    -3.5647    -1.3231 H       
  54 H54           -2.6303    -4.2897    -1.5008 H       
  55 H55            9.2721     1.9883    -0.7333 H       
  56 H56            8.8287     2.3030     1.6420 H       
  57 H57            9.4404     3.8380     0.9863 H       
  58 H58            7.7500    -0.2959     1.1453 H       
  59 H59            6.4654    -1.5468     1.4116 H       
  60 H60            5.5588    -2.5244    -0.7908 H       
  61 H61            6.3508    -1.8046    -2.2540 H       
  62 H62            1.6025     3.9694    -1.3328 H       
  63 H63            1.8166     2.9314    -2.7816 H       
  64 H64           -0.7537     3.7807    -1.3970 H       
  65 H65           -0.4606     3.4629    -3.1388 H       
@<TRIPOS>BOND
   1    1   18 1
   2    2    3 ar
   3    2    7 ar
   4    2   38 1
   5    3    4 ar
   6    3   21 1
   7    4    5 ar
   8    4   39 1
   9    5    6 ar
  10    5   40 1
  11    6    7 ar
  12    6   10 1
  13    7   36 1
  14    8    9 1
  15    8   11 1
  16    8   41 1
  17    8   42 1
  18    9   10 2
  19    9   14 1
  20   10   43 1
  21   11   12 1
  22   11   31 1
  23   11   33 1
  24   12   13 1
  25   12   44 1
  26   12   45 1
  27   13   14 1
  28   13   27 1
  29   14   30 2
  30   15   16 ar
  31   15   20 ar
  32   15   27 1
  33   16   17 ar
  34   16   46 1
  35   17   18 ar
  36   17   47 1
  37   18   19 ar
  38   19   20 ar
  39   19   48 1
  40   20   49 1
  41   21   22 1
  42   21   25 1
  43   22   23 2
  44   22   50 1
  45   23   24 1
  46   23   26 1
  47   24   25 2
  48   25   51 1
  49   26   52 1
  50   26   53 1
  51   26   54 1
  52   27   28 1
  53   27   55 1
  54   28   29 1
  55   28   56 1
  56   28   57 1
  57   29   30 1
  58   31   32 1
  59   31   58 1
  60   31   59 1
  61   32   33 1
  62   32   34 2
  63   32   35 2
  64   33   60 1
  65   33   61 1
  66   36   37 1
  67   36   62 1
  68   36   63 1
  69   37   38 1
  70   37   64 1
  71   37   65 1

#	End of record

