#	Name: ASD02562040
#	Creating user name:	WinNT
#	Creation time:	15. 06. 2019 20:25

#	Modifying user name:	WinNT
#	Modification time:	15. 06. 2019 20:25

#	Program:	/corina/corina34_cracker 3.40 0067  02.08.2006

@<TRIPOS>MOLECULE
ASD02562040
  57   59    0    0    0
SMALL
NO_CHARGES


@<TRIPOS>ATOM
   1 C1             0.1358     1.3887     1.1078 C.2     
   2 C2             0.1567    -0.0175     1.0945 C.2     
   3 C3             1.2852    -0.6792     0.7691 C.2     
   4 N4             2.4254     0.0056     0.4475 N.pl3   
   5 C5             2.4347     1.3816     0.4516 C.2     
   6 C6             1.2601     2.0841     0.7903 C.2     
   7 C7             3.6808    -0.4021     0.0869 C.2     
   8 C8             4.4200     0.7171    -0.1187 C.2     
   9 N9             3.6472     1.7856     0.1072 N.2     
  10 N10            4.1201    -1.7252    -0.0446 N.3     
  11 C11            5.8688     0.7508    -0.5320 C.3     
  12 C12            2.9997    -2.6669     0.0813 C.3     
  13 C13            3.3441    -3.9692    -0.6442 C.3     
  14 C14            2.1772    -4.9500    -0.5130 C.3     
  15 C15            1.9210    -5.2429     0.9667 C.3     
  16 C16            1.5766    -3.9406     1.6922 C.3     
  17 C17            2.7435    -2.9598     1.5610 C.3     
  18 C18            5.9634     0.7687    -2.0589 C.3     
  19 C19            7.4343     0.8029    -2.4785 C.3     
  20 C20            7.5289     0.8208    -4.0054 C.3     
  21 C21            8.9998     0.8551    -4.4250 C.3     
  22 C22            9.0944     0.8730    -5.9519 C.3     
  23 C23           10.5653     0.9072    -6.3715 C.3     
  24 C24           10.6599     0.9251    -7.8984 C.3     
  25 H25           -0.7718     1.9145     1.3652 H       
  26 H26           -0.7362    -0.5702     1.3467 H       
  27 H27            1.2896    -1.7592     0.7626 H       
  28 H28            1.2534     3.1641     0.7972 H       
  29 H29            4.6085    -1.8589    -0.9174 H       
  30 H30            6.3411     1.6464    -0.1282 H       
  31 H31            6.3772    -0.1331    -0.1468 H       
  32 H32            2.1056    -2.2292    -0.3626 H       
  33 H33            3.5266    -3.7605    -1.6984 H       
  34 H34            4.2383    -4.4069    -0.2003 H       
  35 H35            1.2830    -4.5123    -0.9569 H       
  36 H36            2.4225    -5.8778    -1.0299 H       
  37 H37            1.0897    -5.9417     1.0601 H       
  38 H38            2.8152    -5.6806     1.4105 H       
  39 H39            0.6825    -3.5029     1.2483 H       
  40 H40            1.3941    -4.1493     2.7463 H       
  41 H41            3.6377    -3.3975     2.0048 H       
  42 H42            2.4982    -2.0320     2.0778 H       
  43 H43            5.4911    -0.1269    -2.4627 H       
  44 H44            5.4550     1.6526    -2.4441 H       
  45 H45            7.9066     1.6985    -2.0747 H       
  46 H46            7.9427    -0.0810    -2.0933 H       
  47 H47            7.0566    -0.0747    -4.4092 H       
  48 H48            7.0205     1.7048    -4.3906 H       
  49 H49            9.4721     1.7506    -4.0212 H       
  50 H50            9.5082    -0.0289    -4.0398 H       
  51 H51            8.6221    -0.0226    -6.3557 H       
  52 H52            8.5861     1.7569    -6.3371 H       
  53 H53           11.0376     1.8027    -5.9677 H       
  54 H54           11.0737     0.0232    -5.9863 H       
  55 H55           10.1516     1.8090    -8.2836 H       
  56 H56           11.7078     0.9495    -8.1973 H       
  57 H57           10.1877     0.0295    -8.3022 H       
@<TRIPOS>BOND
   1    1    2 1
   2    1    6 2
   3    1   25 1
   4    2    3 2
   5    2   26 1
   6    3    4 1
   7    3   27 1
   8    4    5 1
   9    4    7 1
  10    5    6 1
  11    5    9 2
  12    6   28 1
  13    7    8 2
  14    7   10 1
  15    8    9 1
  16    8   11 1
  17   10   12 1
  18   10   29 1
  19   11   18 1
  20   11   30 1
  21   11   31 1
  22   12   13 1
  23   12   17 1
  24   12   32 1
  25   13   14 1
  26   13   33 1
  27   13   34 1
  28   14   15 1
  29   14   35 1
  30   14   36 1
  31   15   16 1
  32   15   37 1
  33   15   38 1
  34   16   17 1
  35   16   39 1
  36   16   40 1
  37   17   41 1
  38   17   42 1
  39   18   19 1
  40   18   43 1
  41   18   44 1
  42   19   20 1
  43   19   45 1
  44   19   46 1
  45   20   21 1
  46   20   47 1
  47   20   48 1
  48   21   22 1
  49   21   49 1
  50   21   50 1
  51   22   23 1
  52   22   51 1
  53   22   52 1
  54   23   24 1
  55   23   53 1
  56   23   54 1
  57   24   55 1
  58   24   56 1
  59   24   57 1

#	End of record

