#	Name: ASD01140583
#	Creating user name:	WinNT
#	Creation time:	15. 06. 2019 19:01

#	Modifying user name:	WinNT
#	Modification time:	15. 06. 2019 19:01

#	Program:	/corina/corina34_cracker 3.40 0067  02.08.2006

@<TRIPOS>MOLECULE
ASD01140583
  39   40    0    0    0
SMALL
NO_CHARGES


@<TRIPOS>ATOM
   1 Cl1            0.0000     0.0000     0.0000 Cl      
   2 S2             9.1479    11.5955     5.9233 S.3     
   3 N3             7.0919     6.8932     5.9181 N.2     
   4 N4            12.6847    15.3839     5.9079 N.pl3   
   5 N5            11.6021     9.9738     5.8909 N.2     
   6 C6             9.1720     9.8149     5.9135 C.2     
   7 C7            10.8030    12.2526     5.9110 C.ar    
   8 C8            10.5323     9.2294     5.8974 C.2     
   9 C9            11.8383    11.2730     5.8959 C.ar    
  10 C10            8.1803     7.6486     5.9113 C.2     
  11 C11           12.3901    14.0258     5.9045 C.ar    
  12 C12            8.0612     9.0587     5.9201 C.2     
  13 C13           11.0657    13.5979     5.9153 C.ar    
  14 C14           10.6299     7.7638     5.8881 C.2     
  15 C15           13.1720    11.7486     5.8852 C.ar    
  16 C16            9.5045     7.0226     5.8948 C.2     
  17 C17           13.4242    13.0822     5.8901 C.ar    
  18 C18            5.7668     7.5177     5.9346 C.3     
  19 C19            7.2135     5.4333     5.9091 C.3     
  20 C20           11.6002    16.3686     5.9229 C.3     
  21 C21           14.0798    15.8308     5.8965 C.3     
  22 H22            7.0862     9.5230     5.9322 H       
  23 H23           10.2578    14.3145     5.9265 H       
  24 H24           11.5971     7.2835     5.8755 H       
  25 H25           13.9927    11.0466     5.8734 H       
  26 H26            9.5805     5.9453     5.8881 H       
  27 H27           14.4486    13.4241     5.8818 H       
  28 H28            5.6484     8.1422     5.0491 H       
  29 H29            5.0000     6.7431     5.9381 H       
  30 H30            5.6661     8.1327     6.8289 H       
  31 H31            7.2539     5.0657     6.9345 H       
  32 H32            6.3517     5.0000     5.4015 H       
  33 H33            8.1254     5.1479     5.3847 H       
  34 H34           14.5740    15.4564     5.0000 H       
  35 H35           14.1124    16.9203     5.9012 H       
  36 H36           14.5912    15.4482     6.7799 H       
  37 H37           11.3411    16.6081     6.9542 H       
  38 H38           11.9245    17.2742     5.4101 H       
  39 H39           10.7280    15.9563     5.4156 H       
@<TRIPOS>BOND
   1    2    6 1
   2    2    7 1
   3    3   10 2
   4    3   18 1
   5    3   19 1
   6    4   11 1
   7    4   20 1
   8    4   21 1
   9    5    8 2
  10    5    9 1
  11    6    8 1
  12    6   12 2
  13    7    9 ar
  14    7   13 ar
  15    8   14 1
  16    9   15 ar
  17   10   12 1
  18   10   16 1
  19   11   13 ar
  20   11   17 ar
  21   12   22 1
  22   13   23 1
  23   14   16 2
  24   14   24 1
  25   15   17 ar
  26   15   25 1
  27   16   26 1
  28   17   27 1
  29   18   28 1
  30   18   29 1
  31   18   30 1
  32   19   31 1
  33   19   32 1
  34   19   33 1
  35   20   37 1
  36   20   38 1
  37   20   39 1
  38   21   34 1
  39   21   35 1
  40   21   36 1

#	End of record

