#	Name: ASD01410755
#	Creating user name:	WinNT
#	Creation time:	15. 06. 2019 19:18

#	Modifying user name:	WinNT
#	Modification time:	15. 06. 2019 19:18

#	Program:	/corina/corina34_cracker 3.40 0067  02.08.2006

@<TRIPOS>MOLECULE
ASD01410755
 135  143    0    0    0
SMALL
NO_CHARGES


@<TRIPOS>ATOM
   1 C1             1.5255    -0.8467    -2.9131 C.3     
   2 C2             1.9750    -2.3132    -2.7166 C.3     
   3 N3             1.7188    -2.5893    -1.2879 N.am    
   4 C4             0.6299    -1.7155    -0.8340 C.3     
   5 C5             0.2585    -0.7940    -2.0163 C.3     
   6 O6             2.5234     0.0632    -2.4459 O.3     
   7 C7            -0.5630    -2.5468    -0.4378 C.2     
   8 O8            -0.5153    -3.7556    -0.5238 O.2     
   9 N9            -1.6829    -1.9469     0.0121 N.am    
  10 C10           -2.8819    -2.7435     0.2842 C.3     
  11 C11           -3.5254    -3.3816    -0.9199 C.2     
  12 N12           -3.0568    -3.1148    -2.1551 N.am    
  13 O13           -4.4649    -4.1352    -0.7774 O.2     
  14 S14           -3.6818    -3.9087    -3.4671 S.o2    
  15 C15           -5.4084    -3.3585    -3.5488 C.3     
  16 C16           -2.9328    -3.5151     1.6044 C.3     
  17 C17           -3.8034    -2.2711     1.4105 C.3     
  18 C18           -6.3082    -4.0092    -4.6013 C.3     
  19 C19           -6.4883    -4.3547    -3.1218 C.3     
  20 O20           -2.9435    -3.3994    -4.5693 O.2     
  21 O21           -3.6126    -5.2826    -3.1111 O.2     
  22 C22           -3.6336    -4.8751     1.6013 C.3     
  23 C23           -3.4697    -5.5365     2.9711 C.3     
  24 C24            2.4832     1.3266    -2.9374 C.ar    
  25 C25            3.4684     2.2765    -2.5796 C.ar    
  26 C26            1.4904     1.7151    -3.7981 C.ar    
  27 C27            1.4711     3.0266    -4.2920 C.ar    
  28 N28            2.3940     3.9087    -3.9473 N.ar    
  29 C29            3.3894     3.5857    -3.1154 C.ar    
  30 C30            0.3949     3.4330    -5.2197 C.2     
  31 C31            4.3644     4.5326    -2.7561 C.ar    
  32 C32            5.3784     4.1721    -1.8969 C.ar    
  33 C33            5.4489     2.8757    -1.3790 C.ar    
  34 C34            4.5144     1.9420    -1.7074 C.ar    
  35 Cl35           4.2909     6.1462    -3.3920 Cl      
  36 O36            6.3211     5.0866    -1.5491 O.3     
  37 C37            7.3473     4.6523    -0.6545 C.3     
  38 N38            0.2602     4.6151    -5.7497 N.2     
  39 C39           -0.7592     4.7964    -6.5539 C.2     
  40 C40           -1.5526     3.7334    -6.7392 C.2     
  41 S41           -0.9077     2.3940    -5.7922 S.3     
  42 C42           -1.0222     6.1186    -7.2275 C.3     
  43 C43           -0.4054     6.1093    -8.6276 C.3     
  44 C44           -2.5315     6.3441    -7.3366 C.3     
  45 C45            3.4861    -2.4262    -2.9467 C.3     
  46 C46            3.6423    -4.1446    -1.0748 C.3     
  47 C47            2.4094    -3.4692    -0.5434 C.2     
  48 C48            3.4409    -5.6607    -1.0313 C.3     
  49 C49            3.0687    -6.0875     0.3920 C.3     
  50 C50            2.7924    -7.5932     0.4090 C.3     
  51 O51            1.7499    -7.8954    -0.5204 O.3     
  52 C52            2.0607    -7.5615    -1.8747 C.3     
  53 C53            2.3076    -6.0546    -1.9835 C.3     
  54 C54            8.3091     5.8104    -0.3809 C.3     
  55 N55            7.5735     6.9226     0.2356 N.3     
  56 C56            8.4833     8.0143     0.6055 C.3     
  57 C57            6.7976     6.4623     1.3943 C.3     
  58 C58            5.9343     7.6110     1.9206 C.3     
  59 C59            6.8380     8.7807     2.3201 C.3     
  60 C60            7.6702     9.2093     1.1084 C.3     
  61 O61            2.0307    -3.7228     0.5805 O.2     
  62 N62            3.9197    -3.7386    -2.4508 N.am    
  63 O63            4.9299    -4.1720    -4.5088 O.3     
  64 C64            5.6393    -5.1281    -5.3401 C.3     
  65 C65            4.7690    -6.3696    -5.5457 C.3     
  66 C66            5.9498    -4.4926    -6.6968 C.3     
  67 C67            6.9465    -5.5295    -4.6537 C.3     
  68 C68            4.5802    -4.5773    -3.2734 C.2     
  69 O69            4.8602    -5.6993    -2.9001 O.2     
  70 H70            1.2764    -0.6498    -3.9558 H       
  71 H71            1.4128    -2.9903    -3.3597 H       
  72 H72            0.9642    -1.1159     0.0126 H       
  73 H73            0.0741     0.2227    -1.6692 H       
  74 H74           -0.6082    -1.1830    -2.5506 H       
  75 H75           -1.6951    -0.9876     0.1558 H       
  76 H76           -2.3534    -2.4578    -2.2755 H       
  77 H77           -5.5774    -2.3054    -3.3238 H       
  78 H78           -2.0743    -3.4299     2.2706 H       
  79 H79           -3.5175    -1.3677     1.9492 H       
  80 H80           -4.8751    -2.4220     1.2807 H       
  81 H81           -7.0694    -3.3844    -5.0685 H       
  82 H82           -5.8627    -4.7679    -5.2447 H       
  83 H83           -6.1612    -5.3408    -2.7918 H       
  84 H84           -7.3680    -3.9572    -2.6156 H       
  85 H85           -4.6938    -4.7371     1.3890 H       
  86 H86           -3.1895    -5.5109     0.8353 H       
  87 H87           -2.4095    -5.6746     3.1834 H       
  88 H88           -3.9138    -4.9008     3.7371 H       
  89 H89           -3.9689    -6.5055     2.9689 H       
  90 H90            0.7255     1.0129    -4.0953 H       
  91 H91            6.2523     2.6128    -0.7069 H       
  92 H92            4.5805     0.9441    -1.2999 H       
  93 H93            6.8975     4.3244     0.2827 H       
  94 H94            7.8947     3.8239    -1.1041 H       
  95 H95           -2.4326     3.7012    -7.3644 H       
  96 H96           -0.5765     6.9209    -6.6395 H       
  97 H97           -0.8510     5.3070    -9.2157 H       
  98 H98           -0.5956     7.0656    -9.1148 H       
  99 H99            0.6699     5.9486    -8.5499 H       
 100 H100          -2.9772     5.5417    -7.9247 H       
 101 H101          -2.9710     6.3507    -6.3392 H       
 102 H102          -2.7217     7.3004    -7.8238 H       
 103 H103           3.7045    -2.3435    -4.0114 H       
 104 H104           4.0026    -1.6365    -2.4010 H       
 105 H105           4.4930    -3.8797    -0.4469 H       
 106 H106           4.3620    -6.1596    -1.3325 H       
 107 H107           3.8934    -5.8608     1.0676 H       
 108 H108           2.1762    -5.5498     0.7119 H       
 109 H109           3.6973    -8.1320     0.1281 H       
 110 H110           2.4855    -7.8951     1.4104 H       
 111 H111           2.9560    -8.0999    -2.1855 H       
 112 H112           1.2266    -7.8407    -2.5185 H       
 113 H113           1.3997    -5.5162    -1.7116 H       
 114 H114           2.5880    -5.8044    -3.0067 H       
 115 H115           9.0966     5.4768     0.2949 H       
 116 H116           8.7525     6.1438    -1.3191 H       
 117 H117           9.1559     7.6753     1.3934 H       
 118 H118           9.0661     8.3124    -0.2660 H       
 119 H119           6.1562     5.6331     1.0956 H       
 120 H120           7.4782     6.1306     2.1785 H       
 121 H121           5.2439     7.9340     1.1414 H       
 122 H122           5.3703     7.2734     2.7902 H       
 123 H123           6.2245     9.6171     2.6549 H       
 124 H124           7.5021     8.4691     3.1263 H       
 125 H125           8.3465    10.0138     1.3975 H       
 126 H126           7.0072     9.5575     0.3163 H       
 127 H127           3.8378    -6.0836    -6.0346 H       
 128 H128           5.3016    -7.0873    -6.1697 H       
 129 H129           4.5478    -6.8223    -4.5791 H       
 130 H130           6.5698    -3.6081    -6.5503 H       
 131 H131           6.4824    -5.2103    -7.3208 H       
 132 H132           5.0186    -4.2066    -7.1857 H       
 133 H133           6.7252    -5.9823    -3.6872 H       
 134 H134           7.4790    -6.2472    -5.2778 H       
 135 H135           7.5664    -4.6451    -4.5073 H       
@<TRIPOS>BOND
   1    1    2 1
   2    1    6 1
   3    1    5 1
   4    1   70 1
   5    2    3 1
   6    2   45 1
   7    2   71 1
   8    3    4 1
   9    3   47 am
  10    4    5 1
  11    4    7 1
  12    4   72 1
  13    5   73 1
  14    5   74 1
  15    6   24 1
  16    7    8 2
  17    7    9 am
  18    9   10 1
  19    9   75 1
  20   10   11 1
  21   10   16 1
  22   10   17 1
  23   11   12 am
  24   11   13 2
  25   12   14 am
  26   12   76 1
  27   14   15 1
  28   14   20 2
  29   14   21 2
  30   15   18 1
  31   15   19 1
  32   15   77 1
  33   16   17 1
  34   16   22 1
  35   16   78 1
  36   17   79 1
  37   17   80 1
  38   18   19 1
  39   18   81 1
  40   18   82 1
  41   19   83 1
  42   19   84 1
  43   22   23 1
  44   22   85 1
  45   22   86 1
  46   23   87 1
  47   23   88 1
  48   23   89 1
  49   24   25 ar
  50   24   26 ar
  51   25   29 ar
  52   25   34 ar
  53   26   27 ar
  54   26   90 1
  55   27   28 ar
  56   27   30 1
  57   28   29 ar
  58   29   31 ar
  59   30   38 2
  60   30   41 1
  61   31   32 ar
  62   31   35 1
  63   32   33 ar
  64   32   36 1
  65   33   34 ar
  66   33   91 1
  67   34   92 1
  68   36   37 1
  69   37   54 1
  70   37   93 1
  71   37   94 1
  72   38   39 1
  73   39   40 2
  74   39   42 1
  75   40   41 1
  76   40   95 1
  77   42   43 1
  78   42   44 1
  79   42   96 1
  80   43   97 1
  81   43   98 1
  82   43   99 1
  83   44  100 1
  84   44  101 1
  85   44  102 1
  86   45   62 1
  87   45  103 1
  88   45  104 1
  89   46   47 1
  90   46   48 1
  91   46   62 1
  92   46  105 1
  93   47   61 2
  94   48   49 1
  95   48   53 1
  96   48  106 1
  97   49   50 1
  98   49  107 1
  99   49  108 1
 100   50   51 1
 101   50  109 1
 102   50  110 1
 103   51   52 1
 104   52   53 1
 105   52  111 1
 106   52  112 1
 107   53  113 1
 108   53  114 1
 109   54   55 1
 110   54  115 1
 111   54  116 1
 112   55   56 1
 113   55   57 1
 114   56   60 1
 115   56  117 1
 116   56  118 1
 117   57   58 1
 118   57  119 1
 119   57  120 1
 120   58   59 1
 121   58  121 1
 122   58  122 1
 123   59   60 1
 124   59  123 1
 125   59  124 1
 126   60  125 1
 127   60  126 1
 128   62   68 am
 129   63   64 1
 130   63   68 1
 131   64   65 1
 132   64   66 1
 133   64   67 1
 134   65  127 1
 135   65  128 1
 136   65  129 1
 137   66  130 1
 138   66  131 1
 139   66  132 1
 140   67  133 1
 141   67  134 1
 142   67  135 1
 143   68   69 2

#	End of record

