#	Name: ASD01815576
#	Creating user name:	WinNT
#	Creation time:	15. 06. 2019 19:33

#	Modifying user name:	WinNT
#	Modification time:	15. 06. 2019 19:33

#	Program:	/corina/corina34_cracker 3.40 0067  02.08.2006

@<TRIPOS>MOLECULE
ASD01815576
  37   39    0    0    0
SMALL
NO_CHARGES


@<TRIPOS>ATOM
   1 C1            -0.0168     1.3866     0.0097 C.ar    
   2 C2             0.0021    -0.0041     0.0020 C.ar    
   3 C3            -1.1742    -0.7236     0.0098 C.ar    
   4 C4            -2.3968    -0.0585     0.0250 C.ar    
   5 C5            -2.4139     1.3470     0.0328 C.ar    
   6 C6            -1.2175     2.0644     0.0305 C.ar    
   7 N7            -3.5791    -0.7680     0.0320 N.pl3   
   8 C8            -4.7802    -0.1764     0.0462 C.2     
   9 C9            -4.9239     1.1964     0.0550 C.2     
  10 C10           -3.7163     2.0378     0.0490 C.2     
  11 O11           -3.7898     3.2542     0.0566 O.2     
  12 C12           -6.2603     1.8076     0.0706 C.2     
  13 O13           -7.2510     1.1031     0.0758 O.2     
  14 O14           -6.3877     3.1496     0.0790 O.3     
  15 C15           -3.5186    -2.2317     0.0230 C.3     
  16 C16           -3.4845    -2.7418     1.4407 C.ar    
  17 C17           -4.6650    -3.0253     2.1018 C.ar    
  18 C18           -4.6337    -3.4931     3.4022 C.ar    
  19 C19           -3.4220    -3.6779     4.0413 C.ar    
  20 C20           -2.2415    -3.3953     3.3799 C.ar    
  21 C21           -2.2726    -2.9315     2.0780 C.ar    
  22 F22            1.1452     2.0757     0.0023 F       
  23 Cl23           1.5220    -0.8426    -0.0181 Cl      
  24 C24           -3.3880    -4.1870     5.4593 C.3     
  25 F25           -3.3311    -5.5848     5.4517 F       
  26 F26           -2.2594    -3.6779     6.1106 F       
  27 F27           -4.5419    -3.7709     6.1320 F       
  28 H28           -1.1469    -1.8032     0.0038 H       
  29 H29           -1.2316     3.1443     0.0368 H       
  30 H30           -5.6662    -0.7940     0.0506 H       
  31 H31           -7.2869     3.5053     0.0892 H       
  32 H32           -4.3975    -2.6286    -0.4849 H       
  33 H33           -2.6192    -2.5549    -0.5011 H       
  34 H34           -5.6116    -2.8810     1.6024 H       
  35 H35           -5.5560    -3.7140     3.9189 H       
  36 H36           -1.2949    -3.5393     3.8794 H       
  37 H37           -1.3503    -2.7107     1.5613 H       
@<TRIPOS>BOND
   1    1    2 ar
   2    1   22 1
   3    1    6 ar
   4    2    3 ar
   5    2   23 1
   6    3    4 ar
   7    3   28 1
   8    4    5 ar
   9    4    7 1
  10    5    6 ar
  11    5   10 1
  12    6   29 1
  13    7    8 1
  14    7   15 1
  15    8    9 2
  16    8   30 1
  17    9   10 1
  18    9   12 1
  19   10   11 2
  20   12   13 2
  21   12   14 1
  22   14   31 1
  23   15   16 1
  24   15   32 1
  25   15   33 1
  26   16   17 ar
  27   16   21 ar
  28   17   18 ar
  29   17   34 1
  30   18   19 ar
  31   18   35 1
  32   19   20 ar
  33   19   24 1
  34   20   21 ar
  35   20   36 1
  36   21   37 1
  37   24   25 1
  38   24   26 1
  39   24   27 1

#	End of record

