#	Name: ASD03240971
#	Creating user name:	WinNT
#	Creation time:	15. 06. 2019 20:35

#	Modifying user name:	WinNT
#	Modification time:	15. 06. 2019 20:35

#	Program:	/corina/corina34_cracker 3.40 0067  02.08.2006

@<TRIPOS>MOLECULE
ASD03240971
  68   74    0    0    0
SMALL
NO_CHARGES


@<TRIPOS>ATOM
   1 C1            -0.4569     0.7996     0.0456 C.3     
   2 C2             0.2231    -0.5797     0.0468 C.3     
   3 C3             1.4554     0.1156     0.6490 C.3     
   4 C4             0.9541     1.4078    -0.0172 C.3     
   5 O5            -1.2408     1.0503    -1.1226 O.3     
   6 C6            -1.2035     1.1159     1.3430 C.3     
   7 C7            -1.7046     2.5610     1.3037 C.3     
   8 C8            -2.3946     0.1670     1.4904 C.3     
   9 C9             2.7632    -0.3833     0.0905 C.ar    
  10 C10            3.9004    -0.3651     0.8782 C.ar    
  11 C11            5.1005    -0.8210     0.3728 C.ar    
  12 C12            5.1658    -1.3009    -0.9353 C.ar    
  13 C13            4.0158    -1.3167    -1.7245 C.ar    
  14 C14            2.8204    -0.8630    -1.2059 C.ar    
  15 N15            9.9263    -0.9854    -1.2008 N.pl3   
  16 C16           11.1246    -1.4226    -1.6969 C.2     
  17 N17           11.2064    -2.4510    -2.5595 N.2     
  18 C18           10.1457    -3.0938    -2.9752 C.2     
  19 C19            8.8304    -2.6833    -2.4883 C.ar    
  20 C20            7.6597    -3.3311    -2.8969 C.ar    
  21 C21            6.4500    -2.8751    -2.3837 C.ar    
  22 C22            6.4509    -1.7912    -1.4841 C.ar    
  23 N23            7.5801    -1.2023    -1.1204 N.ar    
  24 C24            8.7514    -1.6039    -1.5829 C.ar    
  25 C25           12.1069    -0.6165    -1.1376 C.2     
  26 C26           11.4778     0.3015    -0.3061 C.2     
  27 N27           10.1838     0.0913    -0.3437 N.2     
  28 C28            5.1755    -3.5208    -2.7799 C.ar    
  29 C29            4.8862    -3.7297    -4.1274 C.ar    
  30 C30            3.6986    -4.3317    -4.4901 C.ar    
  31 C31            2.7959    -4.7275    -3.5195 C.ar    
  32 C32            3.0774    -4.5223    -2.1808 C.ar    
  33 C33            4.2645    -3.9266    -1.8059 C.ar    
  34 C34           12.1691     1.3687     0.5028 C.3     
  35 C35           12.7128     0.9725     1.8770 C.3     
  36 C36           13.6774     1.2269     0.7169 C.3     
  37 N37            1.4432     0.1674     2.1170 N.3     
  38 H38           -0.2460    -1.2972     0.7201 H       
  39 H39            0.3937    -0.9833    -0.9513 H       
  40 H40            1.3245     1.5476    -1.0327 H       
  41 H41            1.0752     2.2949     0.6045 H       
  42 H42           -1.6711     1.9163    -1.1292 H       
  43 H43           -0.5299     0.9878     2.1903 H       
  44 H44           -2.2365     2.7864     2.2281 H       
  45 H45           -0.8560     3.2371     1.1987 H       
  46 H46           -2.3782     2.6891     0.4564 H       
  47 H47           -2.0377    -0.8625     1.5184 H       
  48 H48           -2.9265     0.3924     2.4147 H       
  49 H49           -3.0682     0.2951     0.6431 H       
  50 H50            3.8486     0.0070     1.8908 H       
  51 H51            5.9877    -0.8060     0.9886 H       
  52 H52            4.0601    -1.6867    -2.7382 H       
  53 H53            1.9284    -0.8785    -1.8146 H       
  54 H54           10.2407    -3.9161    -3.6688 H       
  55 H55            7.6941    -4.1595    -3.5890 H       
  56 H56           13.1694    -0.6901    -1.3166 H       
  57 H57            5.5901    -3.4208    -4.8861 H       
  58 H58            3.4732    -4.4937    -5.5339 H       
  59 H59            1.8677    -5.1981    -3.8080 H       
  60 H60            2.3687    -4.8327    -1.4273 H       
  61 H61            4.4852    -3.7710    -0.7602 H       
  62 H62           11.7687     2.3763     0.3913 H       
  63 H63           12.6705     1.7197     2.6694 H       
  64 H64           12.5705    -0.0600     2.1960 H       
  65 H65           14.1697     0.3618     0.2727 H       
  66 H66           14.2697     2.1415     0.7462 H       
  67 H67            2.3820     0.1694     2.4866 H       
  68 H68            0.9232     0.9670     2.4463 H       
@<TRIPOS>BOND
   1    1    2 1
   2    1    4 1
   3    1    5 1
   4    1    6 1
   5    2    3 1
   6    2   38 1
   7    2   39 1
   8    3    4 1
   9    3    9 1
  10    3   37 1
  11    4   40 1
  12    4   41 1
  13    5   42 1
  14    6    7 1
  15    6    8 1
  16    6   43 1
  17    7   44 1
  18    7   45 1
  19    7   46 1
  20    8   47 1
  21    8   48 1
  22    8   49 1
  23    9   10 ar
  24    9   14 ar
  25   10   11 ar
  26   10   50 1
  27   11   12 ar
  28   11   51 1
  29   12   13 ar
  30   12   22 1
  31   13   14 ar
  32   13   52 1
  33   14   53 1
  34   15   16 1
  35   15   24 1
  36   15   27 1
  37   16   17 1
  38   16   25 2
  39   17   18 2
  40   18   19 1
  41   18   54 1
  42   19   20 ar
  43   19   24 ar
  44   20   21 ar
  45   20   55 1
  46   21   22 ar
  47   21   28 1
  48   22   23 ar
  49   23   24 ar
  50   25   26 1
  51   25   56 1
  52   26   27 2
  53   26   34 1
  54   28   29 ar
  55   28   33 ar
  56   29   30 ar
  57   29   57 1
  58   30   31 ar
  59   30   58 1
  60   31   32 ar
  61   31   59 1
  62   32   33 ar
  63   32   60 1
  64   33   61 1
  65   34   35 1
  66   34   36 1
  67   34   62 1
  68   35   36 1
  69   35   63 1
  70   35   64 1
  71   36   65 1
  72   36   66 1
  73   37   67 1
  74   37   68 1

#	End of record

