#	Name: ASD03740156
#	Creating user name:	WinNT
#	Creation time:	15. 06. 2019 20:46

#	Modifying user name:	WinNT
#	Modification time:	15. 06. 2019 20:46

#	Program:	/corina/corina34_cracker 3.40 0067  02.08.2006

@<TRIPOS>MOLECULE
ASD03740156
  48   51    0    0    0
SMALL
NO_CHARGES


@<TRIPOS>ATOM
   1 C1            -0.0168     1.3859     0.0097 C.ar    
   2 C2             0.0021    -0.0041     0.0020 C.ar    
   3 C3            -1.1619    -0.7194     0.0093 C.ar    
   4 C4            -2.3849    -0.0535     0.0245 C.ar    
   5 C5            -2.4062     1.3544     0.0323 C.ar    
   6 C6            -1.2020     2.0651     0.0303 C.ar    
   7 N7            -3.6913    -0.4692     0.0352 N.pl3   
   8 N8            -4.5293     0.6505     0.0495 N.2     
   9 C9            -3.8160     1.7436     0.0483 C.2     
  10 O10           -4.2970     3.0149     0.0603 O.3     
  11 C11           -4.1384    -1.8643     0.0317 C.3     
  12 C12           -4.2775    -2.3508     1.4512 C.ar    
  13 C13           -5.4815    -2.2085     2.1155 C.ar    
  14 C14           -5.6097    -2.6545     3.4174 C.ar    
  15 C15           -4.5328    -3.2434     4.0558 C.ar    
  16 C16           -3.3281    -3.3856     3.3905 C.ar    
  17 C17           -3.2028    -2.9443     2.0866 C.ar    
  18 C18           -5.7173     3.1711     0.0751 C.3     
  19 C19           -6.0665     4.6607     0.0870 C.3     
  20 C20           -7.5831     4.8299    -0.0229 C.3     
  21 Cl21          -4.6929    -3.8033     5.6912 Cl      
  22 C22           -5.5765     5.2889     1.3932 C.3     
  23 C23           -5.9257     6.7785     1.4052 C.3     
  24 C24           -7.4423     6.9477     1.2952 C.3     
  25 C25           -7.9323     6.3195    -0.0110 C.3     
  26 Cl26           1.4792     2.2665     0.0001 Cl      
  27 H27            0.9482    -0.5247    -0.0102 H       
  28 H28           -1.1336    -1.7990     0.0029 H       
  29 H29           -1.2089     3.1451     0.0366 H       
  30 H30           -5.1019    -1.9358    -0.4729 H       
  31 H31           -3.4070    -2.4790    -0.4930 H       
  32 H32           -6.3220    -1.7484     1.6172 H       
  33 H33           -6.5502    -2.5429     3.9364 H       
  34 H34           -2.4871    -3.8453     3.8883 H       
  35 H35           -2.2625    -3.0553     1.5671 H       
  36 H36           -6.1434     2.7052    -0.8134 H       
  37 H37           -6.1259     2.6950     0.9664 H       
  38 H38           -5.5838     5.1538    -0.7568 H       
  39 H39           -7.9321     4.3824    -0.9535 H       
  40 H40           -8.0658     4.3368     0.8209 H       
  41 H41           -6.0593     4.7958     2.2370 H       
  42 H42           -4.4961     5.1684     1.4715 H       
  43 H43           -5.5767     7.2261     2.3357 H       
  44 H44           -5.4430     7.2716     0.5614 H       
  45 H45           -7.9250     6.4546     2.1390 H       
  46 H46           -7.6911     8.0089     1.3037 H       
  47 H47           -7.4495     6.8126    -0.8548 H       
  48 H48           -9.0127     6.4401    -0.0893 H       
@<TRIPOS>BOND
   1    1    2 ar
   2    1   26 1
   3    1    6 ar
   4    2    3 ar
   5    2   27 1
   6    3    4 ar
   7    3   28 1
   8    4    5 ar
   9    4    7 1
  10    5    6 ar
  11    5    9 1
  12    6   29 1
  13    7    8 1
  14    7   11 1
  15    8    9 2
  16    9   10 1
  17   10   18 1
  18   11   12 1
  19   11   30 1
  20   11   31 1
  21   12   13 ar
  22   12   17 ar
  23   13   14 ar
  24   13   32 1
  25   14   15 ar
  26   14   33 1
  27   15   16 ar
  28   15   21 1
  29   16   17 ar
  30   16   34 1
  31   17   35 1
  32   18   19 1
  33   18   36 1
  34   18   37 1
  35   19   20 1
  36   19   22 1
  37   19   38 1
  38   20   25 1
  39   20   39 1
  40   20   40 1
  41   22   23 1
  42   22   41 1
  43   22   42 1
  44   23   24 1
  45   23   43 1
  46   23   44 1
  47   24   25 1
  48   24   45 1
  49   24   46 1
  50   25   47 1
  51   25   48 1

#	End of record

