#	Name: ASD03540043
#	Creating user name:	WinNT
#	Creation time:	15. 06. 2019 20:42

#	Modifying user name:	WinNT
#	Modification time:	15. 06. 2019 20:42

#	Program:	/corina/corina34_cracker 3.40 0067  02.08.2006

@<TRIPOS>MOLECULE
ASD03540043
  68   69    0    0    0
SMALL
NO_CHARGES


@<TRIPOS>ATOM
   1 C1            -0.0180     1.4730     0.0101 C.2     
   2 C2             0.0021    -0.0041     0.0020 C.ar    
   3 C3             1.2188    -0.6888    -0.0133 C.ar    
   4 C4             1.2303    -2.0682    -0.0203 C.ar    
   5 C5             0.0396    -2.7731    -0.0127 C.ar    
   6 C6            -1.1697    -2.1009     0.0020 C.ar    
   7 C7            -1.1956    -0.7217     0.0154 C.ar    
   8 O8             1.0256     2.0946     0.0035 O.2     
   9 O9            -1.1936     2.1307     0.0193 O.3     
  10 C10            0.0601    -4.2800    -0.0210 C.3     
  11 C11           -1.0793    -5.0129     1.9841 C.2     
  12 N12           -1.1282    -5.4741     3.2648 N.am    
  13 C13            0.0660    -5.6934     3.9082 C.2     
  14 C14            1.2694    -5.4566     3.2841 C.2     
  15 C15            1.2641    -4.9820     1.9659 C.2     
  16 N16            0.0799    -4.7757     1.3575 N.am    
  17 S17           -0.3445    -6.2790     5.5261 S.3     
  18 C18           -2.2429    -5.7502     4.0017 C.2     
  19 C19           -2.0947    -6.1994     5.2558 C.2     
  20 C20           -3.1579    -6.5518     6.2054 C.2     
  21 N21           -2.8408    -6.9920     7.4392 N.am    
  22 O22           -4.3252    -6.4464     5.8785 O.2     
  23 C23           -3.9015    -7.3436     8.3866 C.3     
  24 C24           -2.4414    -7.3570    11.8711 C.ar    
  25 C25           -3.0067    -6.8988    10.6961 C.ar    
  26 C26           -3.2852    -7.8031     9.6827 C.ar    
  27 C27           -2.9838    -9.1404     9.8905 C.ar    
  28 C28           -2.4197    -9.5248    11.0922 C.ar    
  29 N29           -2.1680    -8.6367    12.0339 N.ar    
  30 O30            2.3113    -4.7607     1.3802 O.2     
  31 O31           -2.1210    -4.8151     1.3895 O.2     
  32 C32            2.5694    -5.7024     4.0057 C.3     
  33 C33           -1.1373     3.5816     0.0269 C.3     
  34 C34           -2.5589     4.1471     0.0367 C.3     
  35 N35           -3.2243     3.7774     1.2931 N.3     
  36 C36           -2.5808     4.4296     2.4414 C.3     
  37 C37           -4.6578     4.0946     1.2428 C.3     
  38 H38            2.1488    -0.1398    -0.0199 H       
  39 H39            2.1707    -2.5992    -0.0321 H       
  40 H40           -2.0953    -2.6572     0.0071 H       
  41 H41           -2.1401    -0.1983     0.0318 H       
  42 H42           -0.8298    -4.6526    -0.5283 H       
  43 H43            0.9499    -4.6284    -0.5452 H       
  44 H44           -3.2279    -5.6094     3.5816 H       
  45 H45           -1.9103    -7.0760     7.6998 H       
  46 H46           -4.5276    -6.4707     8.5713 H       
  47 H47           -4.5102    -8.1457     7.9692 H       
  48 H48           -2.2172    -6.6583    12.6635 H       
  49 H49           -3.2286    -5.8495    10.5689 H       
  50 H50           -3.1876    -9.8725     9.1231 H       
  51 H51           -2.1819   -10.5646    11.2618 H       
  52 H52            2.8928    -6.7288     3.8322 H       
  53 H53            3.3279    -5.0144     3.6324 H       
  54 H54            2.4276    -5.5420     5.0745 H       
  55 H55           -0.6055     3.9199     0.9162 H       
  56 H56           -0.6140     3.9295    -0.8637 H       
  57 H57           -2.5185     5.2331    -0.0471 H       
  58 H58           -3.1184     3.7383    -0.8047 H       
  59 H59           -2.6355     5.5117     2.3222 H       
  60 H60           -3.0930     4.1388     3.3585 H       
  61 H61           -1.5364     4.1223     2.4954 H       
  62 H62           -5.1233     3.5437     0.4255 H       
  63 H63           -5.1260     3.8108     2.1854 H       
  64 H64           -4.7877     5.1645     1.0802 H       
  65 H65            8.3279    10.5117    17.6635 H       
  66 Cl66           8.3279    11.8817    17.6635 Cl      
  67 H67           13.3279    16.8817    22.6635 H       
  68 Cl68          13.3279    18.2517    22.6635 Cl      
@<TRIPOS>BOND
   1    1    2 1
   2    1    8 2
   3    1    9 1
   4    2    3 ar
   5    2    7 ar
   6    3    4 ar
   7    3   38 1
   8    4    5 ar
   9    4   39 1
  10    5    6 ar
  11    5   10 1
  12    6    7 ar
  13    6   40 1
  14    7   41 1
  15    9   33 1
  16   10   16 1
  17   10   42 1
  18   10   43 1
  19   11   12 am
  20   11   16 am
  21   11   31 2
  22   12   13 1
  23   12   18 1
  24   13   14 2
  25   13   17 1
  26   14   15 1
  27   14   32 1
  28   15   16 am
  29   15   30 2
  30   17   19 1
  31   18   19 2
  32   18   44 1
  33   19   20 1
  34   20   21 am
  35   20   22 2
  36   21   23 1
  37   21   45 1
  38   23   26 1
  39   23   46 1
  40   23   47 1
  41   24   25 ar
  42   24   29 ar
  43   24   48 1
  44   25   26 ar
  45   25   49 1
  46   26   27 ar
  47   27   28 ar
  48   27   50 1
  49   28   29 ar
  50   28   51 1
  51   32   52 1
  52   32   53 1
  53   32   54 1
  54   33   34 1
  55   33   55 1
  56   33   56 1
  57   34   35 1
  58   34   57 1
  59   34   58 1
  60   35   36 1
  61   35   37 1
  62   36   59 1
  63   36   60 1
  64   36   61 1
  65   37   62 1
  66   37   63 1
  67   37   64 1
  68   65   66 1
  69   67   68 1

#	End of record

