#	Name: ASD06660018
#	Creating user name:	WinNT
#	Creation time:	15. 06. 2019 21:07

#	Modifying user name:	WinNT
#	Modification time:	15. 06. 2019 21:07

#	Program:	/corina/corina34_cracker 3.40 0067  02.08.2006

@<TRIPOS>MOLECULE
ASD06660018
  69   72    0    0    0
SMALL
NO_CHARGES


@<TRIPOS>ATOM
   1 C1            -1.3535     1.7034     0.5247 C.2     
   2 C2            -0.9289     0.4336    -0.1668 C.3     
   3 C3            -1.5705     0.3693    -1.5542 C.3     
   4 O4            -0.5229     2.5105     0.8693 O.2     
   5 O5            -2.6548     1.9405     0.7530 O.3     
   6 C6            -1.2531    -0.9579    -2.1935 C.ar    
   7 C7            -2.0494    -2.0578    -1.9318 C.ar    
   8 C8            -1.7612    -3.2755    -2.5161 C.ar    
   9 C9            -0.6706    -3.3947    -3.3676 C.ar    
  10 C10            0.1268    -2.2881    -3.6288 C.ar    
  11 C11           -0.1696    -1.0720    -3.0451 C.ar    
  12 N12           -0.3757    -4.6271    -3.9608 N.am    
  13 C13           -1.1394    -5.7271    -3.8443 C.2     
  14 C14           -0.5259    -6.8712    -4.6210 C.3     
  15 C15            0.4954    -6.1878    -5.5595 C.3     
  16 C16            0.8041    -4.8832    -4.7954 C.3     
  17 C17            1.7530    -7.0449    -5.7173 C.3     
  18 N18            1.4149    -8.2822    -6.4252 N.pl3   
  19 C19            2.4022    -9.2250    -6.6871 C.ar    
  20 C20            3.7095    -8.9873    -6.2742 C.ar    
  21 C21            4.6817    -9.9339    -6.5413 C.ar    
  22 C22            4.3129   -11.0910    -7.2151 C.ar    
  23 C23            2.9972   -11.2615    -7.5956 C.ar    
  24 N24            2.0892   -10.3435    -7.3225 N.ar    
  25 O25           -2.1702    -5.7929    -3.2085 O.2     
  26 C26            1.3025     0.1460     0.7689 C.2     
  27 C27            2.7661     0.0224     0.6112 C.ar    
  28 C28            3.3505    -1.2368     0.4568 C.ar    
  29 C29            4.7163    -1.3464     0.3097 C.ar    
  30 C30            5.5103    -0.2093     0.3152 C.ar    
  31 C31            4.9354     1.0429     0.4681 C.ar    
  32 C32            3.5695     1.1643     0.6103 C.ar    
  33 O33            0.7950     0.0046     1.8645 O.2     
  34 N34            0.5297     0.4154    -0.3020 N.am    
  35 C35            2.9454     2.5266     0.7702 C.3     
  36 F36            6.8489    -0.3224     0.1714 F       
  37 C37            2.4891    -2.4733     0.4516 C.3     
  38 C38            1.9498    -2.7133    -0.9600 C.3     
  39 H39           -1.2499    -0.4256     0.4221 H       
  40 H40           -2.6510     0.4782    -1.4603 H       
  41 H41           -1.1768     1.1747    -2.1743 H       
  42 H42           -2.8785     2.7685     1.1996 H       
  43 H43           -2.8974    -1.9645    -1.2695 H       
  44 H44           -2.3830    -4.1343    -2.3108 H       
  45 H45            0.9756    -2.3776    -4.2905 H       
  46 H46            0.4477    -0.2101    -3.2510 H       
  47 H47           -0.0209    -7.5627    -3.9465 H       
  48 H48           -1.2886    -7.3909    -5.2009 H       
  49 H49            0.0490    -5.9705    -6.5298 H       
  50 H50            0.9564    -4.0617    -5.4955 H       
  51 H51            1.6870    -5.0155    -4.1701 H       
  52 H52            2.4999    -6.4925    -6.2875 H       
  53 H53            2.1534    -7.2873    -4.7329 H       
  54 H54            0.5022    -8.4435    -6.7112 H       
  55 H55            3.9615    -8.0759    -5.7525 H       
  56 H56            5.7048    -9.7766    -6.2333 H       
  57 H57            5.0483   -11.8495    -7.4393 H       
  58 H58            2.7061   -12.1598    -8.1197 H       
  59 H59            5.1693    -2.3195     0.1902 H       
  60 H60            5.5583     1.9252     0.4717 H       
  61 H61            0.9394     0.5973    -1.1622 H       
  62 H62            2.8987     2.7829     1.8286 H       
  63 H63            3.5481     3.2665     0.2435 H       
  64 H64            1.9380     2.5158     0.3542 H       
  65 H65            3.0837    -3.3317     0.7642 H       
  66 H66            1.6556    -2.3384     1.1409 H       
  67 H67            1.2496    -3.5485    -0.9443 H       
  68 H68            1.4385    -1.8169    -1.3108 H       
  69 H69            2.7773    -2.9455    -1.6304 H       
@<TRIPOS>BOND
   1    1    2 1
   2    1    4 2
   3    1    5 1
   4    2    3 1
   5    2   34 1
   6    2   39 1
   7    3    6 1
   8    3   40 1
   9    3   41 1
  10    5   42 1
  11    6    7 ar
  12    6   11 ar
  13    7    8 ar
  14    7   43 1
  15    8    9 ar
  16    8   44 1
  17    9   10 ar
  18    9   12 1
  19   10   11 ar
  20   10   45 1
  21   11   46 1
  22   12   13 am
  23   12   16 1
  24   13   14 1
  25   13   25 2
  26   14   15 1
  27   14   47 1
  28   14   48 1
  29   15   16 1
  30   15   17 1
  31   15   49 1
  32   16   50 1
  33   16   51 1
  34   17   18 1
  35   17   52 1
  36   17   53 1
  37   18   19 1
  38   18   54 1
  39   19   20 ar
  40   19   24 ar
  41   20   21 ar
  42   20   55 1
  43   21   22 ar
  44   21   56 1
  45   22   23 ar
  46   22   57 1
  47   23   24 ar
  48   23   58 1
  49   26   27 1
  50   26   33 2
  51   26   34 am
  52   27   28 ar
  53   27   32 ar
  54   28   29 ar
  55   28   37 1
  56   29   30 ar
  57   29   59 1
  58   30   31 ar
  59   30   36 1
  60   31   32 ar
  61   31   60 1
  62   32   35 1
  63   34   61 1
  64   35   62 1
  65   35   63 1
  66   35   64 1
  67   37   38 1
  68   37   65 1
  69   37   66 1
  70   38   67 1
  71   38   68 1
  72   38   69 1

#	End of record

