#	Name: ASD02030517
#	Creating user name:	WinNT
#	Creation time:	15. 06. 2019 20:15

#	Modifying user name:	WinNT
#	Modification time:	15. 06. 2019 20:15

#	Program:	/corina/corina34_cracker 3.40 0067  02.08.2006

@<TRIPOS>MOLECULE
ASD02030517
  55   58    0    0    0
SMALL
NO_CHARGES


@<TRIPOS>ATOM
   1 N1            -0.2121     1.4224    -0.1395 N.am    
   2 C2            -0.0217    -0.0111     0.1222 C.3     
   3 C3            -0.9186    -0.4180     1.2979 C.3     
   4 N4            -2.2777     0.0817     1.0466 N.am    
   5 C5            -2.4681     1.5153     0.7848 C.3     
   6 C6            -1.5718     1.9231    -0.3853 C.3     
   7 C7             0.8407     2.2638    -0.1485 C.2     
   8 C8             2.1832     1.7721     0.2276 C.2     
   9 N9             3.2618     2.5093     0.3829 N.2     
  10 N10            2.5160     0.4923     0.4772 N.2     
  11 C11            3.7903     0.4727     0.7747 C.2     
  12 N12            4.2432     1.7417     0.7117 N.pl3   
  13 O13            0.6865     3.4271    -0.4659 O.2     
  14 C14           -3.3305    -0.7597     1.0556 C.2     
  15 C15           -4.7027    -0.2284     0.9115 C.ar    
  16 O16           -3.1519    -1.9553     1.1822 O.2     
  17 C17           -1.5453     3.4482    -0.5046 C.3     
  18 C18           -2.1094     1.3124    -1.6810 C.3     
  19 C19            5.5587     2.1554     0.9610 C.ar    
  20 C20            5.8961     3.4981     0.8615 C.ar    
  21 C21            7.1947     3.9030     1.1086 C.ar    
  22 C22            8.1571     2.9707     1.4543 C.ar    
  23 C23            7.8229     1.6326     1.5539 C.ar    
  24 C24            6.5260     1.2233     1.3138 C.ar    
  25 Cl25           7.6184     5.5820     0.9846 Cl      
  26 C26           -5.6737    -0.9695     0.2371 C.ar    
  27 C27           -6.9536    -0.4676     0.1065 C.ar    
  28 C28           -7.2733     0.7680     0.6432 C.ar    
  29 C29           -6.3144     1.5070     1.3129 C.ar    
  30 C30           -5.0337     1.0142     1.4547 C.ar    
  31 Cl31          -8.1636    -1.3871    -0.7325 Cl      
  32 C32           -8.6717     1.3104     0.4969 C.3     
  33 H33           -0.2966    -0.5844    -0.7631 H       
  34 H34            1.0214    -0.2015     0.3749 H       
  35 H35           -0.9384    -1.5044     1.3840 H       
  36 H36           -0.5333     0.0176     2.2198 H       
  37 H37           -3.5111     1.7056     0.5321 H       
  38 H38           -2.1931     2.0885     1.6702 H       
  39 H39            4.3729    -0.4007     1.0279 H       
  40 H40           -1.0494     3.8724     0.3684 H       
  41 H41           -1.0015     3.7327    -1.4054 H       
  42 H42           -2.5661     3.8259    -0.5619 H       
  43 H43           -3.1230     1.6718    -1.8589 H       
  44 H44           -1.4691     1.6044    -2.5134 H       
  45 H45           -2.1192     0.2259    -1.5939 H       
  46 H46            5.1451     4.2257     0.5910 H       
  47 H47            9.1712     3.2888     1.6463 H       
  48 H48            8.5762     0.9072     1.8236 H       
  49 H49            6.2660     0.1780     1.3922 H       
  50 H50           -5.4249    -1.9333    -0.1821 H       
  51 H51           -6.5700     2.4703     1.7290 H       
  52 H52           -4.2865     1.5923     1.9780 H       
  53 H53           -9.2768     0.9884     1.3444 H       
  54 H54           -8.6377     2.3995     0.4677 H       
  55 H55           -9.1119     0.9357    -0.4271 H       
@<TRIPOS>BOND
   1    1    2 1
   2    1    7 am
   3    1    6 1
   4    2    3 1
   5    2   33 1
   6    2   34 1
   7    3    4 1
   8    3   35 1
   9    3   36 1
  10    4    5 1
  11    4   14 am
  12    5    6 1
  13    5   37 1
  14    5   38 1
  15    6   17 1
  16    6   18 1
  17    7    8 1
  18    7   13 2
  19    8    9 2
  20    8   10 1
  21    9   12 1
  22   10   11 2
  23   11   12 1
  24   11   39 1
  25   12   19 1
  26   14   15 1
  27   14   16 2
  28   15   26 ar
  29   15   30 ar
  30   17   40 1
  31   17   41 1
  32   17   42 1
  33   18   43 1
  34   18   44 1
  35   18   45 1
  36   19   20 ar
  37   19   24 ar
  38   20   21 ar
  39   20   46 1
  40   21   22 ar
  41   21   25 1
  42   22   23 ar
  43   22   47 1
  44   23   24 ar
  45   23   48 1
  46   24   49 1
  47   26   27 ar
  48   26   50 1
  49   27   28 ar
  50   27   31 1
  51   28   29 ar
  52   28   32 1
  53   29   30 ar
  54   29   51 1
  55   30   52 1
  56   32   53 1
  57   32   54 1
  58   32   55 1

#	End of record

