#	Name: ASD03331937
#	Creating user name:	WinNT
#	Creation time:	15. 06. 2019 20:40

#	Modifying user name:	WinNT
#	Modification time:	15. 06. 2019 20:40

#	Program:	/corina/corina34_cracker 3.40 0067  02.08.2006

@<TRIPOS>MOLECULE
ASD03331937
  78   80    0    0    0
SMALL
NO_CHARGES


@<TRIPOS>ATOM
   1 C1             0.3399     1.7175     1.5242 C.2     
   2 N2             0.3648     0.4257     1.9283 N.pl3   
   3 C3             1.5930    -0.0810     1.6117 C.2     
   4 N4             2.3053     0.8704     1.0509 N.2     
   5 C5             1.5604     1.9947     0.9853 C.2     
   6 C6             1.9907     3.2903     0.4303 C.2     
   7 O7             1.2246     4.2349     0.4268 O.2     
   8 N8             3.2331     3.4284    -0.0734 N.am    
   9 C9             3.6609     4.7164    -0.6251 C.3     
  10 C10            3.2160     4.8187    -2.0854 C.3     
  11 C11            3.8830     3.7091    -2.9007 C.3     
  12 C12            5.1623     4.8219    -0.5488 C.2     
  13 C13            1.6957     4.6681    -2.1672 C.3     
  14 C14            3.6246     6.1813    -2.6488 C.3     
  15 O15            5.8287     3.8345    -0.3211 O.2     
  16 N16            5.7644     6.0134    -0.7336 N.am    
  17 C17            7.2266     6.1030    -0.7341 C.3     
  18 C18           -0.7325    -0.2775     2.5984 C.3     
  19 C19           -2.0383    -0.0051     1.8454 C.3     
  20 C20           -2.6831     1.2710     2.3772 C.3     
  21 N21           -1.6663     2.2440     2.7820 N.3     
  22 C22           -0.8348     2.6542     1.6409 C.3     
  23 C23           -2.2818     3.4095     3.4307 C.3     
  24 C24            2.0435    -1.4615     1.8575 C.2     
  25 C25            1.9995    -1.9105     3.0917 C.2     
  26 C26            2.4447    -3.2914     3.4862 C.3     
  27 N27            2.6610    -4.0932     2.2734 N.am    
  28 C28            3.3667    -3.4481     1.1528 C.3     
  29 C29            2.5162    -2.2636     0.6816 C.3     
  30 C30            2.2306    -5.3676     2.1899 C.2     
  31 O31            1.5879    -5.9307     3.2304 O.3     
  32 O32            2.4224    -6.0084     1.1755 O.2     
  33 C33            1.1527    -7.3066     3.0700 C.3     
  34 C34            2.3676    -8.1983     2.8058 C.3     
  35 C35            0.4474    -7.7705     4.3460 C.3     
  36 C36            0.1845    -7.4008     1.8891 C.3     
  37 H37            3.8441     2.6751    -0.0706 H       
  38 H38            3.2102     5.5255    -0.0504 H       
  39 H39            3.5920     2.7383    -2.4994 H       
  40 H40            3.5661     3.7820    -3.9411 H       
  41 H41            4.9661     3.8164    -2.8425 H       
  42 H42            1.2205     5.4587    -1.5863 H       
  43 H43            1.3787     4.7410    -3.2075 H       
  44 H44            1.4046     3.6974    -1.7658 H       
  45 H45            4.6913     6.3364    -2.4870 H       
  46 H46            3.4109     6.2116    -3.7172 H       
  47 H47            3.0625     6.9667    -2.1434 H       
  48 H48            5.2295     6.8117    -0.8662 H       
  49 H49            7.5272     7.1380    -0.8968 H       
  50 H50            7.6121     5.7592     0.2258 H       
  51 H51            7.6286     5.4783    -1.5318 H       
  52 H52           -0.5306    -1.3486     2.6018 H       
  53 H53           -0.8220     0.0805     3.6241 H       
  54 H54           -1.8263     0.1116     0.7826 H       
  55 H55           -2.7208    -0.8429     1.9882 H       
  56 H56           -3.3069     1.7085     1.5977 H       
  57 H57           -3.3062     1.0255     3.2372 H       
  58 H58           -0.4756     3.6711     1.7986 H       
  59 H59           -1.4258     2.6131     0.7260 H       
  60 H60           -2.8282     3.0859     4.3166 H       
  61 H61           -1.5045     4.1162     3.7213 H       
  62 H62           -2.9694     3.8913     2.7356 H       
  63 H63            1.6246    -1.2536     3.8626 H       
  64 H64            3.3747    -3.2268     4.0510 H       
  65 H65            1.6761    -3.7602     4.1006 H       
  66 H66            4.3428    -3.0956     1.4860 H       
  67 H67            3.4900    -4.1596     0.3364 H       
  68 H68            1.6573    -2.6361     0.1233 H       
  69 H69            3.1154    -1.6253     0.0322 H       
  70 H70            3.0574    -8.1312     3.6471 H       
  71 H71            2.0408    -9.2312     2.6854 H       
  72 H72            2.8700    -7.8678     1.8967 H       
  73 H73           -0.4181    -7.1352     4.5342 H       
  74 H74            0.1207    -8.8034     4.2256 H       
  75 H75            1.1372    -7.7034     5.1873 H       
  76 H76            0.6869    -7.0704     0.9800 H       
  77 H77           -0.1423    -8.4337     1.7686 H       
  78 H78           -0.6811    -6.7656     2.0773 H       
@<TRIPOS>BOND
   1    1    2 1
   2    1    5 2
   3    1   22 1
   4    2    3 1
   5    2   18 1
   6    3    4 2
   7    3   24 1
   8    4    5 1
   9    5    6 1
  10    6    7 2
  11    6    8 am
  12    8    9 1
  13    8   37 1
  14    9   10 1
  15    9   12 1
  16    9   38 1
  17   10   11 1
  18   10   13 1
  19   10   14 1
  20   11   39 1
  21   11   40 1
  22   11   41 1
  23   12   15 2
  24   12   16 am
  25   13   42 1
  26   13   43 1
  27   13   44 1
  28   14   45 1
  29   14   46 1
  30   14   47 1
  31   16   17 1
  32   16   48 1
  33   17   49 1
  34   17   50 1
  35   17   51 1
  36   18   19 1
  37   18   52 1
  38   18   53 1
  39   19   20 1
  40   19   54 1
  41   19   55 1
  42   20   21 1
  43   20   56 1
  44   20   57 1
  45   21   22 1
  46   21   23 1
  47   22   58 1
  48   22   59 1
  49   23   60 1
  50   23   61 1
  51   23   62 1
  52   24   25 2
  53   24   29 1
  54   25   26 1
  55   25   63 1
  56   26   27 1
  57   26   64 1
  58   26   65 1
  59   27   28 1
  60   27   30 am
  61   28   29 1
  62   28   66 1
  63   28   67 1
  64   29   68 1
  65   29   69 1
  66   30   31 1
  67   30   32 2
  68   31   33 1
  69   33   34 1
  70   33   35 1
  71   33   36 1
  72   34   70 1
  73   34   71 1
  74   34   72 1
  75   35   73 1
  76   35   74 1
  77   35   75 1
  78   36   76 1
  79   36   77 1
  80   36   78 1

#	End of record

