#	Name: ASD01140625
#	Creating user name:	WinNT
#	Creation time:	15. 06. 2019 19:01

#	Modifying user name:	WinNT
#	Modification time:	15. 06. 2019 19:01

#	Program:	/corina/corina34_cracker 3.40 0067  02.08.2006

@<TRIPOS>MOLECULE
ASD01140625
  38   40    0    0    0
SMALL
NO_CHARGES


@<TRIPOS>ATOM
   1 C1            -0.0016     1.3414    -0.1883 C.2     
   2 C2             0.0204    -0.0173    -0.1305 C.2     
   3 C3             1.2454    -0.6877     0.0218 C.2     
   4 C4             2.3971     0.0101     0.1108 C.2     
   5 C5             1.2099     2.0568    -0.0940 C.2     
   6 N6             1.4800     3.3535    -0.1195 N.2     
   7 N7             2.3900     1.3742     0.0547 N.pl3   
   8 C8             3.3899     2.3041     0.1188 C.2     
   9 C9             2.8046     3.5292     0.0085 C.2     
  10 C10            3.5106     4.8345     0.0264 C.ar    
  11 C11            4.7075     4.9911    -0.6697 C.ar    
  12 C12            5.3606     6.2064    -0.6503 C.ar    
  13 C13            4.8279     7.2700     0.0599 C.ar    
  14 C14            3.6382     7.1187     0.7534 C.ar    
  15 C15            2.9755     5.9085     0.7347 C.ar    
  16 C16            4.8622     2.0262     0.2804 C.3     
  17 N17            5.4533     1.7472    -1.0306 N.am    
  18 C18            6.7682     1.4692    -1.1316 C.2     
  19 C19            7.3764     1.1823    -2.4803 C.3     
  20 O20            7.4621     1.4500    -0.1371 O.2     
  21 C21            1.2736    -2.1930     0.0868 C.3     
  22 F22            5.4709     8.4581     0.0766 F       
  23 H23           -0.9372     1.8670    -0.3098 H       
  24 H24           -0.8998    -0.5782    -0.2011 H       
  25 H25            3.3332    -0.5155     0.2278 H       
  26 H26            5.1235     4.1623    -1.2233 H       
  27 H27            6.2885     6.3286    -1.1893 H       
  28 H28            3.2264     7.9504     1.3058 H       
  29 H29            2.0458     5.7927     1.2719 H       
  30 H30            5.3498     2.8957     0.7213 H       
  31 H31            4.9997     1.1632     0.9320 H       
  32 H32            4.8984     1.7626    -1.8261 H       
  33 H33            7.7251     2.1133    -2.9271 H       
  34 H34            8.2172     0.4989    -2.3617 H       
  35 H35            6.6266     0.7271    -3.1275 H       
  36 H36            0.2582    -2.5796    -0.0007 H       
  37 H37            1.8816    -2.5806    -0.7307 H       
  38 H38            1.7014    -2.5077     1.0386 H       
@<TRIPOS>BOND
   1    1    2 2
   2    1    5 1
   3    1   23 1
   4    2    3 1
   5    2   24 1
   6    3    4 2
   7    3   21 1
   8    4    7 1
   9    4   25 1
  10    5    7 1
  11    5    6 2
  12    6    9 1
  13    7    8 1
  14    8    9 2
  15    8   16 1
  16    9   10 1
  17   10   11 ar
  18   10   15 ar
  19   11   12 ar
  20   11   26 1
  21   12   13 ar
  22   12   27 1
  23   13   14 ar
  24   13   22 1
  25   14   15 ar
  26   14   28 1
  27   15   29 1
  28   16   17 1
  29   16   30 1
  30   16   31 1
  31   17   18 am
  32   17   32 1
  33   18   19 1
  34   18   20 2
  35   19   33 1
  36   19   34 1
  37   19   35 1
  38   21   36 1
  39   21   37 1
  40   21   38 1

#	End of record

