#	Name: ASD03090143
#	Creating user name:	WinNT
#	Creation time:	15. 06. 2019 20:28

#	Modifying user name:	WinNT
#	Modification time:	15. 06. 2019 20:28

#	Program:	/corina/corina34_cracker 3.40 0067  02.08.2006

@<TRIPOS>MOLECULE
ASD03090143
  55   58    0    0    0
SMALL
NO_CHARGES


@<TRIPOS>ATOM
   1 C1            -0.3197     1.0347    -0.7334 C.ar    
   2 C2            -0.1782    -0.1064     0.0450 C.ar    
   3 C3             1.0555    -0.7077     0.1788 C.ar    
   4 C4             2.1672    -0.1693    -0.4697 C.ar    
   5 C5             2.0264     0.9782    -1.2513 C.ar    
   6 C6             0.7863     1.5782    -1.3806 C.ar    
   7 C7             3.4914    -0.8125    -0.3288 C.2     
   8 N8             7.0037    -0.8653    -0.4757 N.pl3   
   9 C9             7.4347     0.3566    -0.9989 C.ar    
  10 C10            6.6542     1.0289    -1.9307 C.ar    
  11 C11            7.0830     2.2367    -2.4455 C.ar    
  12 C12            8.2879     2.7765    -2.0347 C.ar    
  13 C13            9.0677     2.1095    -1.1073 C.ar    
  14 C14            8.6421     0.9046    -0.5840 C.ar    
  15 N15            4.6583    -0.2448    -0.5619 N.2     
  16 C16            5.6385    -1.1206    -0.3318 C.2     
  17 N17            5.1127    -2.2608     0.0516 N.2     
  18 N18            3.7196    -2.0850     0.0673 N.pl3   
  19 C19            2.7127    -3.0850     0.4313 C.3     
  20 C20            2.4647    -3.0306     1.9167 C.2     
  21 N21            1.5709    -3.8661     2.4817 N.am    
  22 O22            3.0695    -2.2349     2.6037 O.2     
  23 C23            1.3298    -3.8133     3.9258 C.3     
  24 O24            0.6660     2.7014    -2.1405 O.3     
  25 C25           -0.6572     3.0623    -2.5508 C.3     
  26 C26           -1.5837     2.9577    -1.3318 C.3     
  27 O27           -1.5483     1.6065    -0.8579 O.3     
  28 C28           -0.0720    -4.3464     4.2287 C.3     
  29 C29            2.3693    -4.6725     4.6482 C.3     
  30 C30           10.3806     2.7012    -0.6632 C.3     
  31 F31           10.5909     3.9170    -1.3225 F       
  32 F32           10.3504     2.9190     0.7184 F       
  33 F33           11.4193     1.8168    -0.9733 F       
  34 H34           -1.0377    -0.5245     0.5479 H       
  35 H35            1.1612    -1.5948     0.7857 H       
  36 H36            2.8848     1.3978    -1.7547 H       
  37 H37            7.6529    -1.5362    -0.2124 H       
  38 H38            5.7134     0.6075    -2.2526 H       
  39 H39            6.4767     2.7599    -3.1701 H       
  40 H40            8.6210     3.7209    -2.4390 H       
  41 H41            9.2515     0.3843     0.1401 H       
  42 H42            1.7843    -2.8757    -0.1000 H       
  43 H43            3.0714    -4.0776     0.1589 H       
  44 H44            1.0872    -4.5026     1.9323 H       
  45 H45            1.4084    -2.7819     4.2698 H       
  46 H46           -0.6592     4.0853    -2.9272 H       
  47 H47           -0.9984     2.3822    -3.3312 H       
  48 H48           -1.2385     3.6327    -0.5487 H       
  49 H49           -2.6018     3.2188    -1.6204 H       
  50 H50           -0.1506    -5.3777     3.8847 H       
  51 H51           -0.2514    -4.3070     5.3031 H       
  52 H52           -0.8126    -3.7342     3.7140 H       
  53 H53            2.2907    -5.7038     4.3043 H       
  54 H54            3.3680    -4.2927     4.4324 H       
  55 H55            2.1900    -4.6332     5.7226 H       
@<TRIPOS>BOND
   1    1    2 ar
   2    1    6 ar
   3    1   27 1
   4    2    3 ar
   5    2   34 1
   6    3    4 ar
   7    3   35 1
   8    4    5 ar
   9    4    7 1
  10    5    6 ar
  11    5   36 1
  12    6   24 1
  13    7   15 2
  14    7   18 1
  15    8    9 1
  16    8   16 1
  17    8   37 1
  18    9   10 ar
  19    9   14 ar
  20   10   11 ar
  21   10   38 1
  22   11   12 ar
  23   11   39 1
  24   12   13 ar
  25   12   40 1
  26   13   14 ar
  27   13   30 1
  28   14   41 1
  29   15   16 1
  30   16   17 2
  31   17   18 1
  32   18   19 1
  33   19   20 1
  34   19   42 1
  35   19   43 1
  36   20   21 am
  37   20   22 2
  38   21   23 1
  39   21   44 1
  40   23   28 1
  41   23   29 1
  42   23   45 1
  43   24   25 1
  44   25   26 1
  45   25   46 1
  46   25   47 1
  47   26   27 1
  48   26   48 1
  49   26   49 1
  50   28   50 1
  51   28   51 1
  52   28   52 1
  53   29   53 1
  54   29   54 1
  55   29   55 1
  56   30   31 1
  57   30   32 1
  58   30   33 1

#	End of record

