#	Name: ASD05720177
#	Creating user name:	WinNT
#	Creation time:	15. 06. 2019 21:02

#	Modifying user name:	WinNT
#	Modification time:	15. 06. 2019 21:02

#	Program:	/corina/corina34_cracker 3.40 0067  02.08.2006

@<TRIPOS>MOLECULE
ASD05720177
  49   53    0    0    0
SMALL
NO_CHARGES


@<TRIPOS>ATOM
   1 O1            -0.0161     1.3334     0.0094 O.3     
   2 C2             0.0021    -0.0041     0.0020 C.2     
   3 N3             1.2348    -0.5293    -0.0126 N.am    
   4 C4             2.2183     0.5645    -0.0161 C.3     
   5 C5             1.3508     1.8379    -0.0010 C.3     
   6 O6            -1.0069    -0.6808     0.0084 O.2     
   7 C7             3.0990     0.4993     1.2333 C.3     
   8 C8             3.0750     0.5128    -1.2827 C.3     
   9 O9             4.0208     1.5838    -1.2620 O.3     
  10 C10            4.8754     1.6268    -2.4065 C.3     
  11 C11            3.0997    -3.5830    -0.0446 C.2     
  12 N12            2.7934    -2.2820    -0.0358 N.2     
  13 C13            1.5348    -1.8852    -0.0220 C.2     
  14 C14            0.4948    -2.8369    -0.0165 C.2     
  15 C15            0.8012    -4.1542    -0.0253 C.2     
  16 N16            2.1144    -4.5345    -0.0395 N.pl3   
  17 N17            2.7294    -5.7914    -0.0515 N.2     
  18 C18            4.0306    -5.6364    -0.0634 C.2     
  19 C19            4.3226    -4.2670    -0.0650 C.2     
  20 C20            5.6706    -3.6561    -0.0831 C.ar    
  21 C21            6.6407    -4.0788     0.8272 C.ar    
  22 C22            7.8966    -3.5089     0.8095 C.ar    
  23 C23            8.1963    -2.5093    -0.1195 C.ar    
  24 C24            7.2260    -2.0883    -1.0281 C.ar    
  25 C25            5.9737    -2.6612    -1.0144 C.ar    
  26 N26           11.2830    -0.6691    -0.6320 N.pl3   
  27 N27            9.9472    -0.9508    -0.9614 N.2     
  28 C28            9.5460    -1.8958    -0.1389 C.2     
  29 N29           10.5598    -2.2120     0.6787 N.2     
  30 C30           11.6046    -1.4818     0.3903 C.2     
  31 F31            8.8363    -3.9168     1.6903 F       
  32 H32            1.5314     2.4339    -0.8956 H       
  33 H33            1.5485     2.4243     0.8964 H       
  34 H34            3.6293    -0.4528     1.2547 H       
  35 H35            3.8201     1.3164     1.2125 H       
  36 H36            2.4751     0.5878     2.1227 H       
  37 H37            3.6047    -0.4389    -1.3244 H       
  38 H38            2.4343     0.6108    -2.1590 H       
  39 H39            5.5636     2.4671    -2.3148 H       
  40 H40            5.4424     0.6982    -2.4716 H       
  41 H41            4.2720     1.7479    -3.3061 H       
  42 H42           -0.5367    -2.5172    -0.0049 H       
  43 H43            0.0174    -4.8972    -0.0209 H       
  44 H44            4.7584    -6.4342    -0.0738 H       
  45 H45            6.4080    -4.8513     1.5451 H       
  46 H46            7.4581    -1.3156    -1.7461 H       
  47 H47            5.2243    -2.3375    -1.7215 H       
  48 H48           11.8615    -0.0190    -1.0605 H       
  49 H49           12.5623    -1.5238     0.8878 H       
@<TRIPOS>BOND
   1    1    2 1
   2    1    5 1
   3    2    3 am
   4    2    6 2
   5    3    4 1
   6    3   13 1
   7    4    5 1
   8    4    7 1
   9    4    8 1
  10    5   32 1
  11    5   33 1
  12    7   34 1
  13    7   35 1
  14    7   36 1
  15    8    9 1
  16    8   37 1
  17    8   38 1
  18    9   10 1
  19   10   39 1
  20   10   40 1
  21   10   41 1
  22   11   12 1
  23   11   16 1
  24   11   19 2
  25   12   13 2
  26   13   14 1
  27   14   15 2
  28   14   42 1
  29   15   16 1
  30   15   43 1
  31   16   17 1
  32   17   18 2
  33   18   19 1
  34   18   44 1
  35   19   20 1
  36   20   21 ar
  37   20   25 ar
  38   21   22 ar
  39   21   45 1
  40   22   23 ar
  41   22   31 1
  42   23   24 ar
  43   23   28 1
  44   24   25 ar
  45   24   46 1
  46   25   47 1
  47   26   27 1
  48   26   30 1
  49   26   48 1
  50   27   28 2
  51   28   29 1
  52   29   30 2
  53   30   49 1

#	End of record

