#	Name: ASD01730096
#	Creating user name:	WinNT
#	Creation time:	15. 06. 2019 19:23

#	Modifying user name:	WinNT
#	Modification time:	15. 06. 2019 19:23

#	Program:	/corina/corina34_cracker 3.40 0067  02.08.2006

@<TRIPOS>MOLECULE
ASD01730096
  47   48    0    0    0
SMALL
NO_CHARGES


@<TRIPOS>ATOM
   1 C1             0.0270     1.8741     0.1816 C.2     
   2 C2             0.6743     0.5597     0.5346 C.3     
   3 N3             0.7502     2.9638     0.1177 N.2     
   4 N4            -1.3086     1.9274    -0.0764 N.pl3   
   5 S5             4.1575     4.0762     1.6309 S.3     
   6 C6             2.8406     4.2021     0.3830 C.3     
   7 C7             2.0734     2.9084     0.3581 C.2     
   8 N8             2.6038     1.7514     0.5530 N.2     
   9 C9             3.9105     1.4781     0.8058 C.ar    
  10 C10            4.7803     2.4542     1.3191 C.ar    
  11 C11            4.4086     0.1955     0.5531 C.ar    
  12 C12            5.7305    -0.0981     0.8107 C.ar    
  13 C13            6.5821     0.8724     1.3223 C.ar    
  14 C14            6.1042     2.1510     1.5755 C.ar    
  15 O15            7.8831     0.5705     1.5747 O.3     
  16 C16            8.3063    -0.7644     1.2902 C.3     
  17 F17            8.1146    -1.0347    -0.0690 F       
  18 F18            9.6623    -0.9009     1.6061 F       
  19 F19            7.5564    -1.6643     2.0549 F       
  20 C20           -1.9614     3.2207    -0.2948 C.3     
  21 C21           -1.9198     3.5679    -1.7843 C.3     
  22 C22           -2.6015     4.9185    -2.0123 C.3     
  23 C23           -2.0932     0.6916    -0.1356 C.3     
  24 C24           -2.6328     0.3629     1.2578 C.3     
  25 C25           -3.4522    -0.9278     1.1960 C.3     
  26 H26            1.1573     0.6425     1.5082 H       
  27 H27           -0.0853    -0.2212     0.5710 H       
  28 H28            1.4191     0.3072    -0.2202 H       
  29 H29            2.1690     5.0208     0.6416 H       
  30 H30            3.2817     4.3840    -0.5970 H       
  31 H31            3.7554    -0.5671     0.1553 H       
  32 H32            6.1070    -1.0910     0.6135 H       
  33 H33            6.7655     2.9072     1.9721 H       
  34 H34           -2.9983     3.1648     0.0364 H       
  35 H35           -1.4398     3.9914     0.2727 H       
  36 H36           -0.8828     3.6238    -2.1155 H       
  37 H37           -2.4414     2.7972    -2.3517 H       
  38 H38           -3.6384     4.8626    -1.6811 H       
  39 H39           -2.0799     5.6892    -1.4449 H       
  40 H40           -2.5718     5.1659    -3.0735 H       
  41 H41           -2.9262     0.8229    -0.8262 H       
  42 H42           -1.4594    -0.1248    -0.4818 H       
  43 H43           -1.7997     0.2316     1.9484 H       
  44 H44           -3.2665     1.1793     1.6040 H       
  45 H45           -4.2852    -0.7965     0.5054 H       
  46 H46           -2.8184    -1.7442     0.8498 H       
  47 H47           -3.8366    -1.1620     2.1887 H       
@<TRIPOS>BOND
   1    1    2 1
   2    1    3 2
   3    1    4 1
   4    2   26 1
   5    2   27 1
   6    2   28 1
   7    3    7 1
   8    4   20 1
   9    4   23 1
  10    5    6 1
  11    5   10 1
  12    6    7 1
  13    6   29 1
  14    6   30 1
  15    7    8 2
  16    8    9 1
  17    9   10 ar
  18    9   11 ar
  19   10   14 ar
  20   11   12 ar
  21   11   31 1
  22   12   13 ar
  23   12   32 1
  24   13   14 ar
  25   13   15 1
  26   14   33 1
  27   15   16 1
  28   16   17 1
  29   16   18 1
  30   16   19 1
  31   20   21 1
  32   20   34 1
  33   20   35 1
  34   21   22 1
  35   21   36 1
  36   21   37 1
  37   22   38 1
  38   22   39 1
  39   22   40 1
  40   23   24 1
  41   23   41 1
  42   23   42 1
  43   24   25 1
  44   24   43 1
  45   24   44 1
  46   25   45 1
  47   25   46 1
  48   25   47 1

#	End of record

