#	Name: ASD01811847
#	Creating user name:	WinNT
#	Creation time:	15. 06. 2019 19:27

#	Modifying user name:	WinNT
#	Modification time:	15. 06. 2019 19:27

#	Program:	/corina/corina34_cracker 3.40 0067  02.08.2006

@<TRIPOS>MOLECULE
ASD01811847
  60   64    0    0    0
SMALL
NO_CHARGES


@<TRIPOS>ATOM
   1 C1             0.3672     2.1422     0.1830 C.3     
   2 C2             0.2347     0.6634    -0.0673 C.2     
   3 C3             0.8844    -0.1987     0.7105 C.2     
   4 C4             1.7473     0.3455     1.7806 C.ar    
   5 C5             2.1204     1.6906     1.7207 C.ar    
   6 N6             1.7140     2.4769     0.6482 N.3     
   7 C7             1.8188     3.9056     0.9734 C.3     
   8 C8             2.1812    -0.4686     2.8318 C.ar    
   9 C9             2.9654     0.0433     3.8252 C.ar    
  10 C10            3.3364     1.3889     3.7989 C.ar    
  11 C11            2.9110     2.2272     2.7443 C.ar    
  12 C12            4.1730     1.9806     4.8530 C.2     
  13 N13            4.4765     3.2948     4.7451 N.am    
  14 C14            4.0174     4.0277     3.6958 C.2     
  15 N15            3.2798     3.5324     2.7493 N.2     
  16 O16            4.5771     1.3135     5.7878 O.2     
  17 C17            5.3071     3.9341     5.7686 C.3     
  18 C18            4.5235     5.0739     6.4225 C.3     
  19 C19            5.3909     5.7416     7.4914 C.3     
  20 C20            6.6590     6.3007     6.8431 C.3     
  21 C21            7.4426     5.1609     6.1892 C.3     
  22 C22            6.5751     4.4932     5.1203 C.3     
  23 O23            3.3391     4.5517     7.0280 O.3     
  24 C24            1.7800    -1.9207     2.8683 C.3     
  25 C25            0.4407    -2.0550     3.5462 C.ar    
  26 C26           -0.7290    -2.1121     2.8015 C.ar    
  27 C27           -1.9398    -2.2357     3.4540 C.ar    
  28 N28           -1.9950    -2.2996     4.7706 N.ar    
  29 C29           -0.9023    -2.2485     5.5144 C.ar    
  30 C30            0.3497    -2.1299     4.9253 C.ar    
  31 O31           -1.0054    -2.3177     6.8655 O.3     
  32 C32           -2.3204    -2.4446     7.4102 C.3     
  33 H33            0.1637     2.6815    -0.7421 H       
  34 H34           -0.3579     2.4437     0.9390 H       
  35 H35           -0.3857     0.3038    -0.8749 H       
  36 H36            0.7842    -1.2641     0.5647 H       
  37 H37            2.8692     4.1950     1.0050 H       
  38 H38            1.3036     4.4904     0.2113 H       
  39 H39            1.3612     4.0916     1.9451 H       
  40 H40            3.2984    -0.5928     4.6320 H       
  41 H41            4.2793     5.0744     3.6476 H       
  42 H42            5.5799     3.1994     6.5261 H       
  43 H43            4.2506     5.8086     5.6649 H       
  44 H44            4.8326     6.5537     7.9573 H       
  45 H45            5.6638     5.0069     8.2490 H       
  46 H46            6.3861     7.0354     6.0856 H       
  47 H47            7.2770     6.7764     7.6046 H       
  48 H48            8.3460     5.5592     5.7273 H       
  49 H49            7.7154     4.4262     6.9468 H       
  50 H50            7.1334     3.6812     4.6544 H       
  51 H51            6.3023     5.2279     4.3627 H       
  52 H52            2.7921     5.2202     7.4628 H       
  53 H53            1.7122    -2.3047     1.8505 H       
  54 H54            2.5263    -2.4900     3.4224 H       
  55 H55           -0.6928    -2.0600     1.7234 H       
  56 H56           -2.8531    -2.2802     2.8793 H       
  57 H57            1.2399    -2.0888     5.5355 H       
  58 H58           -2.2605    -2.4892     8.4976 H       
  59 H59           -2.9207    -1.5842     7.1144 H       
  60 H60           -2.7830    -3.3570     7.0340 H       
@<TRIPOS>BOND
   1    1    2 1
   2    1    6 1
   3    1   33 1
   4    1   34 1
   5    2    3 2
   6    2   35 1
   7    3    4 1
   8    3   36 1
   9    4    5 ar
  10    4    8 ar
  11    5    6 1
  12    5   11 ar
  13    6    7 1
  14    7   37 1
  15    7   38 1
  16    7   39 1
  17    8    9 ar
  18    8   24 1
  19    9   10 ar
  20    9   40 1
  21   10   11 ar
  22   10   12 1
  23   11   15 1
  24   12   13 am
  25   12   16 2
  26   13   14 1
  27   13   17 1
  28   14   15 2
  29   14   41 1
  30   17   18 1
  31   17   22 1
  32   17   42 1
  33   18   19 1
  34   18   23 1
  35   18   43 1
  36   19   20 1
  37   19   44 1
  38   19   45 1
  39   20   21 1
  40   20   46 1
  41   20   47 1
  42   21   22 1
  43   21   48 1
  44   21   49 1
  45   22   50 1
  46   22   51 1
  47   23   52 1
  48   24   25 1
  49   24   53 1
  50   24   54 1
  51   25   26 ar
  52   25   30 ar
  53   26   27 ar
  54   26   55 1
  55   27   28 ar
  56   27   56 1
  57   28   29 ar
  58   29   30 ar
  59   29   31 1
  60   30   57 1
  61   31   32 1
  62   32   58 1
  63   32   59 1
  64   32   60 1

#	End of record

