#	Name: ASD01910492
#	Creating user name:	WinNT
#	Creation time:	15. 06. 2019 19:55

#	Modifying user name:	WinNT
#	Modification time:	15. 06. 2019 19:55

#	Program:	/corina/corina34_cracker 3.40 0067  02.08.2006

@<TRIPOS>MOLECULE
ASD01910492
  44   47    0    0    0
SMALL
NO_CHARGES


@<TRIPOS>ATOM
   1 C1             0.0501     1.4687     0.0547 C.ar    
   2 C2             0.0549    -0.0144     0.0357 C.2     
   3 N3            -1.0306    -0.8210     0.0395 N.2     
   4 C4            -0.5607    -2.0433     0.0179 C.2     
   5 O5             0.7728    -1.9524     0.0019 O.3     
   6 N6             1.1099    -0.7873     0.0067 N.2     
   7 C7            -1.3712    -3.3138     0.0126 C.3     
   8 C8            -1.0544    -4.1166    -1.2512 C.3     
   9 C9            -1.9013    -5.3911    -1.2737 C.3     
  10 C10           -1.5542    -6.2516    -0.0547 C.3     
  11 N11           -1.7176    -5.4398     1.1591 N.am    
  12 C12           -1.0182    -4.1507     1.2462 C.3     
  13 C13           -2.4942    -5.8697     2.1732 C.2     
  14 C14           -3.2640    -7.1210     2.0340 C.ar    
  15 O15           -2.5607    -5.2264     3.2028 O.2     
  16 C16            1.2551     2.1729     0.0481 C.ar    
  17 C17            1.2443     3.5552     0.0653 C.ar    
  18 C18            0.0406     4.2393     0.0890 C.ar    
  19 C19           -1.1579     3.5427     0.0960 C.ar    
  20 C20           -1.1578     2.1638     0.0732 C.ar    
  21 F21            2.4294     1.5053     0.0255 F       
  22 F22            0.0342     5.5902     0.1058 F       
  23 C23           -2.6141    -8.3102     1.6950 C.ar    
  24 C24           -3.3375    -9.4758     1.5668 C.ar    
  25 C25           -4.7092    -9.4719     1.7733 C.ar    
  26 C26           -5.3617    -8.2970     2.1097 C.ar    
  27 C27           -4.6471    -7.1225     2.2466 C.ar    
  28 F28           -5.4119   -10.6186     1.6453 F       
  29 F29           -5.2833    -5.9769     2.5751 F       
  30 H30           -2.4330    -3.0680     0.0309 H       
  31 H31           -1.2817    -3.5140    -2.1306 H       
  32 H32            0.0026    -4.3827    -1.2569 H       
  33 H33           -2.9582    -5.1263    -1.2430 H       
  34 H34           -1.6922    -5.9508    -2.1854 H       
  35 H35           -2.2228    -7.1114    -0.0120 H       
  36 H36           -0.5216    -6.5924    -0.1300 H       
  37 H37            0.0581    -4.3202     1.2769 H       
  38 H38           -1.3331    -3.6243     2.1472 H       
  39 H39            2.1756     4.1021     0.0607 H       
  40 H40           -2.0939     4.0812     0.1152 H       
  41 H41           -2.0927     1.6230     0.0786 H       
  42 H42           -1.5463    -8.3159     1.5334 H       
  43 H43           -2.8351   -10.3952     1.3044 H       
  44 H44           -6.4299    -8.3000     2.2689 H       
@<TRIPOS>BOND
   1    1    2 1
   2    1   16 ar
   3    1   20 ar
   4    2    3 1
   5    2    6 2
   6    3    4 2
   7    4    5 1
   8    4    7 1
   9    5    6 1
  10    7    8 1
  11    7   12 1
  12    7   30 1
  13    8    9 1
  14    8   31 1
  15    8   32 1
  16    9   10 1
  17    9   33 1
  18    9   34 1
  19   10   11 1
  20   10   35 1
  21   10   36 1
  22   11   12 1
  23   11   13 am
  24   12   37 1
  25   12   38 1
  26   13   14 1
  27   13   15 2
  28   14   23 ar
  29   14   27 ar
  30   16   17 ar
  31   16   21 1
  32   17   18 ar
  33   17   39 1
  34   18   19 ar
  35   18   22 1
  36   19   20 ar
  37   19   40 1
  38   20   41 1
  39   23   24 ar
  40   23   42 1
  41   24   25 ar
  42   24   43 1
  43   25   26 ar
  44   25   28 1
  45   26   27 ar
  46   26   44 1
  47   27   29 1

#	End of record

