#	Name: ASD01048002
#	Creating user name:	WinNT
#	Creation time:	15. 06. 2019 18:58

#	Modifying user name:	WinNT
#	Modification time:	15. 06. 2019 18:58

#	Program:	/corina/corina34_cracker 3.40 0067  02.08.2006

@<TRIPOS>MOLECULE
ASD01048002
  37   39    0    0    0
SMALL
NO_CHARGES


@<TRIPOS>ATOM
   1 C1            -0.4912     0.5110     1.5658 C.ar    
   2 C2            -0.3410    -0.6796     0.8695 C.ar    
   3 C3             0.9252    -1.1576     0.5803 C.ar    
   4 C4             2.0519    -0.4366     0.9917 C.ar    
   5 C5             1.8921     0.7587     1.6903 C.ar    
   6 C6             0.6262     1.2270     1.9744 C.ar    
   7 O7            -1.7356     0.9806     1.8439 O.3     
   8 O8             1.0740    -2.3237    -0.1006 O.3     
   9 N9             5.1755    -2.2702     0.4658 N.pl3   
  10 N10            3.8412    -2.1670     0.8717 N.2     
  11 C11            3.4104    -0.9427     0.6860 C.2     
  12 C12            4.5179    -0.1655     0.1196 C.ar    
  13 C13            4.6641     1.1647    -0.2817 C.ar    
  14 C14            5.8601     1.5915    -0.7836 C.ar    
  15 C15            6.9317     0.7150    -0.8990 C.ar    
  16 C16            6.8121    -0.5900    -0.5136 C.ar    
  17 C17            5.6037    -1.0525     0.0029 C.ar    
  18 C18            7.9846    -1.5273    -0.6467 C.3     
  19 F19            9.1112    -0.8089    -1.0611 F       
  20 F20            8.2437    -2.1285     0.5897 F       
  21 F21            7.6874    -2.5147    -1.5921 F       
  22 C22            5.9897    -3.4864     0.5309 C.3     
  23 C23            6.5840    -3.6199     1.9093 C.2     
  24 C24            6.2996    -4.6645     2.6469 C.2     
  25 H25           -1.2125    -1.2337     0.5534 H       
  26 H26            2.7592     1.3179     2.0095 H       
  27 H27            0.5037     2.1535     2.5159 H       
  28 H28           -2.0936     0.6708     2.6871 H       
  29 H29            1.1107    -2.2164    -1.0610 H       
  30 H30            3.8353     1.8518    -0.1957 H       
  31 H31            5.9738     2.6197    -1.0940 H       
  32 H32            7.8704     1.0695    -1.2985 H       
  33 H33            5.3646    -4.3539     0.3192 H       
  34 H34            6.7907    -3.4273    -0.2060 H       
  35 H35            7.2444    -2.8544     2.2891 H       
  36 H36            5.7072    -5.4694     2.2375 H       
  37 H37            6.6575    -4.7207     3.6643 H       
@<TRIPOS>BOND
   1    1    2 ar
   2    1    6 ar
   3    1    7 1
   4    2    3 ar
   5    2   25 1
   6    3    4 ar
   7    3    8 1
   8    4    5 ar
   9    4   11 1
  10    5    6 ar
  11    5   26 1
  12    6   27 1
  13    7   28 1
  14    8   29 1
  15    9   10 1
  16    9   17 1
  17    9   22 1
  18   10   11 2
  19   11   12 1
  20   12   13 ar
  21   12   17 ar
  22   13   14 ar
  23   13   30 1
  24   14   15 ar
  25   14   31 1
  26   15   16 ar
  27   15   32 1
  28   16   17 ar
  29   16   18 1
  30   18   19 1
  31   18   20 1
  32   18   21 1
  33   22   23 1
  34   22   33 1
  35   22   34 1
  36   23   24 2
  37   23   35 1
  38   24   36 1
  39   24   37 1

#	End of record

