#	Name: ASD01884860
#	Creating user name:	WinNT
#	Creation time:	15. 06. 2019 19:49

#	Modifying user name:	WinNT
#	Modification time:	15. 06. 2019 19:49

#	Program:	/corina/corina34_cracker 3.40 0067  02.08.2006

@<TRIPOS>MOLECULE
ASD01884860
  46   51    0    0    0
SMALL
NO_CHARGES


@<TRIPOS>ATOM
   1 C1             1.0424     1.4566     0.7114 C.ar    
   2 C2             0.9163     0.0991     0.7773 C.ar    
   3 C3             1.5009    -0.7202    -0.1952 C.ar    
   4 C4             2.2192    -0.1550    -1.2416 C.ar    
   5 C5             2.3500     1.2311    -1.3120 C.ar    
   6 C6             1.7570     2.0441    -0.3282 C.ar    
   7 C7             3.0171     2.1434    -2.2461 C.2     
   8 C8             2.8023     3.3899    -1.7998 C.2     
   9 N9             2.0503     3.3529    -0.6531 N.pl3   
  10 C10            1.3542    -2.1922    -0.1084 C.2     
  11 C11            0.6119    -2.8763    -1.0524 C.2     
  12 C12            1.9780    -2.9124     0.9393 C.2     
  13 C13            1.8438    -4.2497     1.0161 C.2     
  14 N14            1.1086    -4.9330     0.0907 N.pl3   
  15 C15            0.4913    -4.2722    -0.9438 C.2     
  16 C16            0.8073    -6.2503    -0.0777 C.2     
  17 N17            0.0559    -6.3495    -1.1437 N.2     
  18 N18           -0.1371    -5.1887    -1.6640 N.2     
  19 C19            1.2579    -7.3868     0.8034 C.3     
  20 C20            1.6436     4.4678     0.0731 C.ar    
  21 N21            1.9921     5.6743    -0.3464 N.ar    
  22 C22            1.6219     6.7552     0.3200 C.ar    
  23 C23            0.8604     6.6127     1.4695 C.ar    
  24 C24            0.5136     5.3349     1.8798 C.ar    
  25 N25            0.9129     4.2969     1.1638 N.ar    
  26 C26            0.1744    -8.2238     1.4863 C.3     
  27 C27            0.9733    -8.8105     0.3208 C.3     
  28 C28           -0.0586    -2.1363    -2.1811 C.3     
  29 F29            0.8696    -1.9014    -3.2011 F       
  30 F30           -1.1154    -2.9053    -2.6802 F       
  31 F31           -0.5525    -0.9152    -1.7097 F       
  32 H32            0.5823     2.0771     1.4662 H       
  33 H33            0.3600    -0.3474     1.5883 H       
  34 H34            2.6724    -0.7839    -1.9936 H       
  35 H35            3.5761     1.8644    -3.1270 H       
  36 H36            3.1671     4.2894    -2.2733 H       
  37 H37            2.5637    -2.3870     1.6790 H       
  38 H38            2.3240    -4.7886     1.8194 H       
  39 H39            2.1838    -7.2170     1.3529 H       
  40 H40            1.9096     7.7366    -0.0270 H       
  41 H41            0.5447     7.4782     2.0332 H       
  42 H42           -0.0786     5.1888     2.7712 H       
  43 H43            0.3876    -8.6049     2.4850 H       
  44 H44           -0.8644    -7.9524     1.2983 H       
  45 H45            0.4600    -8.9251    -0.6340 H       
  46 H46            1.7120    -9.5777     0.5527 H       
@<TRIPOS>BOND
   1    1    2 ar
   2    1    6 ar
   3    1   32 1
   4    2    3 ar
   5    2   33 1
   6    3    4 ar
   7    3   10 1
   8    4    5 ar
   9    4   34 1
  10    5    6 ar
  11    5    7 1
  12    6    9 1
  13    7    8 2
  14    7   35 1
  15    8    9 1
  16    8   36 1
  17    9   20 1
  18   10   11 2
  19   10   12 1
  20   11   28 1
  21   11   15 1
  22   12   13 2
  23   12   37 1
  24   13   14 1
  25   13   38 1
  26   14   15 1
  27   14   16 1
  28   15   18 2
  29   16   17 2
  30   16   19 1
  31   17   18 1
  32   19   26 1
  33   19   27 1
  34   19   39 1
  35   20   21 ar
  36   20   25 ar
  37   21   22 ar
  38   22   23 ar
  39   22   40 1
  40   23   24 ar
  41   23   41 1
  42   24   25 ar
  43   24   42 1
  44   26   27 1
  45   26   43 1
  46   26   44 1
  47   27   45 1
  48   27   46 1
  49   28   29 1
  50   28   30 1
  51   28   31 1

#	End of record

