#	Name: ASD02398050
#	Creating user name:	WinNT
#	Creation time:	15. 06. 2019 20:20

#	Modifying user name:	WinNT
#	Modification time:	15. 06. 2019 20:20

#	Program:	/corina/corina34_cracker 3.40 0067  02.08.2006

@<TRIPOS>MOLECULE
ASD02398050
  61   65    0    0    0
SMALL
NO_CHARGES


@<TRIPOS>ATOM
   1 C1            -0.0721     1.3247    -0.1292 C.ar    
   2 C2            -0.0026    -0.0655     0.0047 C.ar    
   3 C3            -1.1736    -0.8030     0.1611 C.ar    
   4 C4            -2.3949    -0.1598     0.1832 C.ar    
   5 C5            -2.4605     1.2157     0.0505 C.ar    
   6 C6            -1.3040     1.9578    -0.1000 C.ar    
   7 C7            -3.6613    -0.9590     0.3520 C.3     
   8 C8            -3.9209    -1.1850     1.8192 C.2     
   9 O9            -3.1560    -0.7424     2.6432 O.2     
  10 O10           -5.0019    -1.8779     2.2106 O.3     
  11 C11            1.3122    -0.7516    -0.0203 C.ar    
  12 C12            2.2220    -0.5580     1.0177 C.ar    
  13 C13            1.6401    -1.5966    -1.0787 C.ar    
  14 C14            2.8649    -2.2329    -1.0965 C.ar    
  15 C15            3.7659    -2.0330    -0.0664 C.ar    
  16 C16            3.4436    -1.1993     0.9895 C.ar    
  17 C17            1.8726     0.3502     2.1684 C.3     
  18 N18            2.9179     0.2666     3.1914 N.am    
  19 C19            4.0610     1.1797     3.3255 C.3     
  20 O20            1.0648     2.0524    -0.2818 O.3     
  21 C21            0.9165     3.4677    -0.4126 C.3     
  22 C22            2.9880    -0.6548     4.1675 C.2     
  23 O23            4.1559    -0.6162     4.8317 O.3     
  24 C24            4.7170     0.7268     4.6596 C.3     
  25 O25            2.0933    -1.4367     4.4221 O.2     
  26 C26            4.0462     1.6585     5.6910 C.3     
  27 C27            3.5892     2.8724     4.9137 C.ar    
  28 C28            3.5895     2.5933     3.5638 C.ar    
  29 C29            3.1998     4.1253     5.3597 C.ar    
  30 C30            2.8096     5.0949     4.4575 C.ar    
  31 C31            2.8075     4.8149     3.1036 C.ar    
  32 C32            3.1933     3.5690     2.6618 C.ar    
  33 C33           -5.1885    -2.0565     3.6395 C.3     
  34 C34            5.1013    -2.7309    -0.0913 C.3     
  35 F35            5.1950    -3.5175    -1.2443 F       
  36 F36            6.1256    -1.7779    -0.0924 F       
  37 F37            5.2232    -3.5450     1.0399 F       
  38 H38           -1.1263    -1.8770     0.2646 H       
  39 H39           -3.4193     1.7123     0.0687 H       
  40 H40           -1.3615     3.0313    -0.2031 H       
  41 H41           -4.4970    -0.4123    -0.0848 H       
  42 H42           -3.5539    -1.9205    -0.1502 H       
  43 H43            0.9371    -1.7537    -1.8834 H       
  44 H44            3.1199    -2.8883    -1.9161 H       
  45 H45            4.1510    -1.0468     1.7912 H       
  46 H46            1.7957     1.3769     1.8105 H       
  47 H47            0.9189     0.0426     2.5974 H       
  48 H48            4.7381     1.1142     2.4738 H       
  49 H49            0.3069     3.6897    -1.2885 H       
  50 H50            0.4311     3.8661     0.4783 H       
  51 H51            1.8984     3.9268    -0.5275 H       
  52 H52            5.8066     0.7557     4.6572 H       
  53 H53            3.1909     1.1603     6.1474 H       
  54 H54            4.7646     1.9509     6.4568 H       
  55 H55            3.2012     4.3441     6.4173 H       
  56 H56            2.5070     6.0703     4.8087 H       
  57 H57            2.5008     5.5708     2.3958 H       
  58 H58            3.1921     3.3496     1.6043 H       
  59 H59           -4.3330    -2.5899     4.0538 H       
  60 H60           -5.2760    -1.0817     4.1192 H       
  61 H61           -6.0967    -2.6322     3.8181 H       
@<TRIPOS>BOND
   1    1    2 ar
   2    1   20 1
   3    1    6 ar
   4    2    3 ar
   5    2   11 1
   6    3    4 ar
   7    3   38 1
   8    4    5 ar
   9    4    7 1
  10    5    6 ar
  11    5   39 1
  12    6   40 1
  13    7    8 1
  14    7   41 1
  15    7   42 1
  16    8    9 2
  17    8   10 1
  18   10   33 1
  19   11   12 ar
  20   11   13 ar
  21   12   17 1
  22   12   16 ar
  23   13   14 ar
  24   13   43 1
  25   14   15 ar
  26   14   44 1
  27   15   16 ar
  28   15   34 1
  29   16   45 1
  30   17   18 1
  31   17   46 1
  32   17   47 1
  33   18   22 am
  34   18   19 1
  35   19   28 1
  36   19   24 1
  37   19   48 1
  38   20   21 1
  39   21   49 1
  40   21   50 1
  41   21   51 1
  42   22   23 1
  43   22   25 2
  44   23   24 1
  45   24   26 1
  46   24   52 1
  47   26   27 1
  48   26   53 1
  49   26   54 1
  50   27   28 ar
  51   27   29 ar
  52   28   32 ar
  53   29   30 ar
  54   29   55 1
  55   30   31 ar
  56   30   56 1
  57   31   32 ar
  58   31   57 1
  59   32   58 1
  60   33   59 1
  61   33   60 1
  62   33   61 1
  63   34   35 1
  64   34   36 1
  65   34   37 1

#	End of record

