#	Name: ASD02030633
#	Creating user name:	WinNT
#	Creation time:	15. 06. 2019 20:15

#	Modifying user name:	WinNT
#	Modification time:	15. 06. 2019 20:15

#	Program:	/corina/corina34_cracker 3.40 0067  02.08.2006

@<TRIPOS>MOLECULE
ASD02030633
  64   67    0    0    0
SMALL
NO_CHARGES


@<TRIPOS>ATOM
   1 C1            -0.2143     1.4833    -0.0014 C.ar    
   2 C2            -0.1284     0.1074    -0.0124 C.ar    
   3 C3             1.1169    -0.5033     0.0294 C.ar    
   4 C4             2.2605     0.2742     0.0875 C.ar    
   5 C5             2.1714     1.6601     0.1050 C.ar    
   6 C6             0.9341     2.2625     0.0514 C.ar    
   7 C7             0.7673     3.7614     0.0332 C.3     
   8 C8             3.4563     2.4403     0.1979 C.3     
   9 C9             3.2556     3.8779    -0.2785 C.3     
  10 N10            2.0425     4.4046     0.3667 N.am    
  11 C11            0.3215     4.2071    -1.3609 C.3     
  12 O12            1.2496     3.7248    -2.3346 O.3     
  13 C13            0.9979     4.0354    -3.6343 C.ar    
  14 C14            2.1015     5.4374     1.2307 C.2     
  15 O15            3.1783     5.9025     1.5493 O.2     
  16 C16            0.8563     6.0046     1.7908 C.ar    
  17 C17            0.4852     4.6672    -6.2803 C.ar    
  18 C18           -0.3718     5.1089    -5.2833 C.ar    
  19 C19           -0.1162     4.7934    -3.9630 C.ar    
  20 C20            1.8583     3.5990    -4.6308 C.ar    
  21 C21            1.6026     3.9145    -5.9511 C.ar    
  22 C22            0.8320     6.4836     3.1014 C.ar    
  23 C23           -0.2986     6.0684     1.0092 C.ar    
  24 C24           -1.4570     6.5987     1.5379 C.ar    
  25 C25           -1.4759     7.0668     2.8401 C.ar    
  26 C26           -0.3334     7.0116     3.6181 C.ar    
  27 O27            0.2335     4.9779    -7.5801 O.3     
  28 C28            1.1580     4.4899    -8.5544 C.3     
  29 O29            1.2132    -1.8588     0.0138 O.3     
  30 C30           -0.0097    -2.5966     0.0590 C.3     
  31 C31            0.2050    -3.9782    -0.5623 C.3     
  32 C32           -0.4561    -2.7555     1.5138 C.3     
  33 C33           -0.3616     7.5294     5.0331 C.3     
  34 F34           -0.0193     8.8859     5.0402 F       
  35 F35           -1.6467     7.3700     5.5624 F       
  36 F36            0.5550     6.8131     5.8101 F       
  37 H37           -1.1829     1.9594    -0.0386 H       
  38 H38           -1.0258    -0.4921    -0.0530 H       
  39 H39            3.2299    -0.2007     0.1199 H       
  40 H40            0.0127     4.0513     0.7645 H       
  41 H41            3.7957     2.4500     1.2337 H       
  42 H42            4.2132     1.9596    -0.4219 H       
  43 H43            4.1166     4.4836     0.0041 H       
  44 H44            3.1325     3.8936    -1.3615 H       
  45 H45           -0.6689     3.8039    -1.5719 H       
  46 H46            0.2865     5.2959    -1.4003 H       
  47 H47           -1.2419     5.6951    -5.5397 H       
  48 H48           -0.7839     5.1367    -3.1867 H       
  49 H49            2.7284     3.0128    -4.3744 H       
  50 H50            2.2700     3.5705    -6.7274 H       
  51 H51            1.7232     6.4408     3.7099 H       
  52 H52           -0.2850     5.7038    -0.0072 H       
  53 H53           -2.3511     6.6491     0.9342 H       
  54 H54           -2.3854     7.4814     3.2491 H       
  55 H55            1.1876     3.4011    -8.5140 H       
  56 H56            0.8408     4.8081    -9.5475 H       
  57 H57            2.1507     4.8884    -8.3450 H       
  58 H58           -0.7775    -2.0620    -0.5003 H       
  59 H59            0.9727    -4.5128    -0.0030 H       
  60 H60           -0.7279    -4.5410    -0.5279 H       
  61 H61            0.5230    -3.8651    -1.5987 H       
  62 H62           -1.3889    -3.3183     1.5483 H       
  63 H63            0.3117    -3.2901     2.0731 H       
  64 H64           -0.6090    -1.7712     1.9565 H       
@<TRIPOS>BOND
   1    1    2 ar
   2    1    6 ar
   3    1   37 1
   4    2    3 ar
   5    2   38 1
   6    3    4 ar
   7    3   29 1
   8    4    5 ar
   9    4   39 1
  10    5    6 ar
  11    5    8 1
  12    6    7 1
  13    7   10 1
  14    7   11 1
  15    7   40 1
  16    8    9 1
  17    8   41 1
  18    8   42 1
  19    9   10 1
  20    9   43 1
  21    9   44 1
  22   10   14 am
  23   11   12 1
  24   11   45 1
  25   11   46 1
  26   12   13 1
  27   13   20 ar
  28   13   19 ar
  29   14   15 2
  30   14   16 1
  31   16   23 ar
  32   16   22 ar
  33   17   18 ar
  34   17   21 ar
  35   17   27 1
  36   18   19 ar
  37   18   47 1
  38   19   48 1
  39   20   21 ar
  40   20   49 1
  41   21   50 1
  42   22   26 ar
  43   22   51 1
  44   23   24 ar
  45   23   52 1
  46   24   25 ar
  47   24   53 1
  48   25   26 ar
  49   25   54 1
  50   26   33 1
  51   27   28 1
  52   28   55 1
  53   28   56 1
  54   28   57 1
  55   29   30 1
  56   30   31 1
  57   30   32 1
  58   30   58 1
  59   31   59 1
  60   31   60 1
  61   31   61 1
  62   32   62 1
  63   32   63 1
  64   32   64 1
  65   33   34 1
  66   33   35 1
  67   33   36 1

#	End of record

