#	Name: ASD03331097
#	Creating user name:	WinNT
#	Creation time:	15. 06. 2019 20:38

#	Modifying user name:	WinNT
#	Modification time:	15. 06. 2019 20:38

#	Program:	/corina/corina34_cracker 3.40 0067  02.08.2006

@<TRIPOS>MOLECULE
ASD03331097
  63   65    0    0    0
SMALL
NO_CHARGES


@<TRIPOS>ATOM
   1 N1             0.3432     1.0992     0.9013 N.pl3   
   2 C2             0.3049    -0.2599     0.9330 C.2     
   3 C3             1.5040    -1.1717     0.9365 C.3     
   4 N4             2.4734    -0.6897     1.9327 N.3     
   5 C5             3.3981     0.2820     1.3460 C.3     
   6 C6             2.7033     1.1199     0.2764 C.3     
   7 C7             1.5585     1.9184     0.9058 C.3     
   8 C8            -0.9467     1.5438     0.8771 C.2     
   9 N9            -1.7485     0.5051     0.9109 N.2     
  10 C10           -1.0069    -0.6239     0.9486 C.2     
  11 C11           -1.5252    -2.0024     0.9975 C.2     
  12 O12           -0.7531    -2.9417     1.0282 O.2     
  13 N13           -2.8548    -2.2224     1.0082 N.am    
  14 C14            3.2033    -1.8096     2.5418 C.3     
  15 C15            4.2714    -1.2654     3.4926 C.3     
  16 C16           -4.7536    -3.6308     0.4605 C.2     
  17 C17           -3.3701    -3.5929     1.0568 C.3     
  18 C18           -3.4285    -4.0646     2.5111 C.3     
  19 C19           -4.2472    -3.0705     3.3372 C.3     
  20 O20           -5.4576    -2.6440     0.4986 O.2     
  21 N21           -5.2086    -4.7614    -0.1151 N.am    
  22 C22           -6.5065    -4.7663    -0.7946 C.3     
  23 C23           -4.0872    -5.4441     2.5738 C.3     
  24 C24           -2.0095    -4.1508     3.0766 C.3     
  25 C25           -1.3705     2.9594     0.8226 C.ar    
  26 C26           -2.3610     3.3609    -0.0781 C.ar    
  27 C27           -2.7531     4.6850    -0.1240 C.ar    
  28 C28           -2.1659     5.6130     0.7201 C.ar    
  29 C29           -1.1822     5.2193     1.6152 C.ar    
  30 C30           -0.7872     3.8982     1.6741 C.ar    
  31 F31           -2.5524     6.9066     0.6711 F       
  32 F32           -2.9335     2.4564    -0.9022 F       
  33 Cl33          -0.4510     6.3897     2.6685 Cl      
  34 H34            1.1912    -2.1840     1.1925 H       
  35 H35            1.9654    -1.1706    -0.0510 H       
  36 H36            3.7709     0.9405     2.1305 H       
  37 H37            4.2373    -0.2486     0.8961 H       
  38 H38            3.4224     1.8073    -0.1692 H       
  39 H39            2.3047     0.4627    -0.4965 H       
  40 H40            1.3877     2.8271     0.3287 H       
  41 H41            1.8177     2.1802     1.9317 H       
  42 H42           -3.4706    -1.4733     0.9838 H       
  43 H43            2.5072    -2.4372     3.0984 H       
  44 H44            3.6800    -2.4008     1.7599 H       
  45 H45            4.7446    -2.0938     4.0198 H       
  46 H46            5.0234    -0.7215     2.9211 H       
  47 H47            3.8070    -0.5933     4.2142 H       
  48 H48           -2.7113    -4.2492     0.4882 H       
  49 H49           -5.2581    -3.0090     2.9343 H       
  50 H50           -4.2887    -3.4065     4.3733 H       
  51 H51           -3.7779    -2.0877     3.2925 H       
  52 H52           -4.6768    -5.5718    -0.0793 H       
  53 H53           -6.4924    -4.0430    -1.6099 H       
  54 H54           -6.7033    -5.7609    -1.1947 H       
  55 H55           -7.2892    -4.4987    -0.0849 H       
  56 H56           -3.5646    -6.1271     1.9042 H       
  57 H57           -4.0361    -5.8251     3.5938 H       
  58 H58           -5.1304    -5.3628     2.2682 H       
  59 H59           -1.5402    -3.1681     3.0320 H       
  60 H60           -2.0510    -4.4869     4.1127 H       
  61 H61           -1.4262    -4.8591     2.4881 H       
  62 H62           -3.5183     4.9969    -0.8193 H       
  63 H63           -0.0246     3.5924     2.3750 H       
@<TRIPOS>BOND
   1    1    2 1
   2    1    7 1
   3    1    8 1
   4    2    3 1
   5    2   10 2
   6    3    4 1
   7    3   34 1
   8    3   35 1
   9    4    5 1
  10    4   14 1
  11    5    6 1
  12    5   36 1
  13    5   37 1
  14    6    7 1
  15    6   38 1
  16    6   39 1
  17    7   40 1
  18    7   41 1
  19    8    9 2
  20    8   25 1
  21    9   10 1
  22   10   11 1
  23   11   12 2
  24   11   13 am
  25   13   17 1
  26   13   42 1
  27   14   15 1
  28   14   43 1
  29   14   44 1
  30   15   45 1
  31   15   46 1
  32   15   47 1
  33   16   20 2
  34   16   21 am
  35   16   17 1
  36   17   18 1
  37   17   48 1
  38   18   19 1
  39   18   23 1
  40   18   24 1
  41   19   49 1
  42   19   50 1
  43   19   51 1
  44   21   22 1
  45   21   52 1
  46   22   53 1
  47   22   54 1
  48   22   55 1
  49   23   56 1
  50   23   57 1
  51   23   58 1
  52   24   59 1
  53   24   60 1
  54   24   61 1
  55   25   26 ar
  56   25   30 ar
  57   26   27 ar
  58   26   32 1
  59   27   28 ar
  60   27   62 1
  61   28   29 ar
  62   28   31 1
  63   29   30 ar
  64   29   33 1
  65   30   63 1

#	End of record

