#	Name: ASD01911700
#	Creating user name:	WinNT
#	Creation time:	15. 06. 2019 19:58

#	Modifying user name:	WinNT
#	Modification time:	15. 06. 2019 19:58

#	Program:	/corina/corina34_cracker 3.40 0067  02.08.2006

@<TRIPOS>MOLECULE
ASD01911700
  43   45    0    0    0
SMALL
NO_CHARGES


@<TRIPOS>ATOM
   1 N1             0.2425     1.6175     1.2567 N.am    
   2 C2             0.3191     0.3740     0.7426 C.2     
   3 C3             1.5404    -0.4165     0.9161 C.2     
   4 C4             1.5995    -1.7499     1.2198 C.2     
   5 S5             3.1916     0.1808     0.7630 S.3     
   6 C6             3.8060    -1.4281     1.1315 C.2     
   7 N7             2.8002    -2.2446     1.3256 N.2     
   8 C8             5.1900    -1.7888     1.2033 C.1     
   9 C9             6.3247    -2.0845     1.2622 C.1     
  10 C10            7.7086    -2.4452     1.3340 C.ar    
  11 C11            8.0773    -3.7596     1.6362 C.ar    
  12 C12            9.4131    -4.0994     1.7031 C.ar    
  13 C13           10.3869    -3.1417     1.4716 C.ar    
  14 C14           10.0288    -1.8393     1.1720 C.ar    
  15 C15            8.6977    -1.4860     1.0965 C.ar    
  16 O16           -0.6263    -0.0923     0.1341 O.2     
  17 C17           -0.9242     2.4731     0.9923 C.3     
  18 C18            1.3205     2.1525     2.1022 C.3     
  19 C19            1.7339     3.5228     1.5547 C.3     
  20 N20            0.5468     4.3810     1.4447 N.3     
  21 C21           -0.4270     3.8314     0.4863 C.3     
  22 C22            0.9221     5.7556     1.0875 C.3     
  23 Cl23           9.8742    -5.7303     2.0786 Cl      
  24 C24           -0.3420     6.5948     0.8909 C.3     
  25 O25           -1.0670     6.6591     2.1207 O.3     
  26 H26            0.7128    -2.3499     1.3622 H       
  27 H27            7.3188    -4.5068     1.8172 H       
  28 H28           11.4309    -3.4130     1.5255 H       
  29 H29           10.7936    -1.0981     0.9928 H       
  30 H30            8.4201    -0.4689     0.8626 H       
  31 H31           -1.5547     2.0085     0.2343 H       
  32 H32           -1.4932     2.6108     1.9117 H       
  33 H33            0.9635     2.2600     3.1264 H       
  34 H34            2.1747     1.4758     2.0783 H       
  35 H35            2.4538     3.9828     2.2316 H       
  36 H36            2.1863     3.3999     0.5707 H       
  37 H37            0.0517     3.7012    -0.4843 H       
  38 H38           -1.2680     4.5178     0.3883 H       
  39 H39            1.5242     6.1873     1.8870 H       
  40 H40            1.4993     5.7460     0.1628 H       
  41 H41           -0.0648     7.6019     0.5795 H       
  42 H42           -0.9668     6.1365     0.1243 H       
  43 H43           -1.8823     7.1766     2.0700 H       
@<TRIPOS>BOND
   1    1    2 am
   2    1   18 1
   3    1   17 1
   4    2    3 1
   5    2   16 2
   6    3    4 2
   7    3    5 1
   8    4    7 1
   9    4   26 1
  10    5    6 1
  11    6    7 2
  12    6    8 1
  13    8    9 3
  14    9   10 1
  15   10   11 ar
  16   10   15 ar
  17   11   12 ar
  18   11   27 1
  19   12   13 ar
  20   12   23 1
  21   13   14 ar
  22   13   28 1
  23   14   15 ar
  24   14   29 1
  25   15   30 1
  26   17   21 1
  27   17   31 1
  28   17   32 1
  29   18   19 1
  30   18   33 1
  31   18   34 1
  32   19   20 1
  33   19   35 1
  34   19   36 1
  35   20   21 1
  36   20   22 1
  37   21   37 1
  38   21   38 1
  39   22   24 1
  40   22   39 1
  41   22   40 1
  42   24   25 1
  43   24   41 1
  44   24   42 1
  45   25   43 1

#	End of record

