#	Name: ASD01912441
#	Creating user name:	WinNT
#	Creation time:	15. 06. 2019 19:59

#	Modifying user name:	WinNT
#	Modification time:	15. 06. 2019 19:59

#	Program:	/corina/corina34_cracker 3.40 0067  02.08.2006

@<TRIPOS>MOLECULE
ASD01912441
  41   43    0    0    0
SMALL
NO_CHARGES


@<TRIPOS>ATOM
   1 C1             0.3533     1.0729    -0.3010 C.ar    
   2 C2             0.4176    -0.3061    -0.3894 C.ar    
   3 C3             1.6558    -0.9269    -0.4841 C.ar    
   4 C4             2.7921    -0.1383    -0.4869 C.ar    
   5 C5             2.6550     1.2494    -0.3947 C.ar    
   6 N6             1.4489     1.8034    -0.3056 N.ar    
   7 C7             3.8210     2.0807    -0.3962 C.1     
   8 C8             4.7769     2.7623    -0.3974 C.1     
   9 C9             5.9428     3.5936    -0.3989 C.2     
  10 N10            5.5268     7.6069    -1.0446 N.3     
  11 C11            6.8015     6.9378    -1.3336 C.3     
  12 C12            7.0332     5.8200    -0.3105 C.3     
  13 C13            5.8174     4.9171    -0.3112 C.2     
  14 C14            4.4543     5.5689    -0.2094 C.3     
  15 C15            4.3864     6.7027    -1.2389 C.3     
  16 C16            4.6796    10.2349    -3.2841 C.2     
  17 N17            5.6730    10.7677    -2.6289 N.2     
  18 C18            6.1277     9.8921    -1.7187 C.2     
  19 C19            5.3841     8.7641    -1.8118 C.2     
  20 N20            4.4643     8.9786    -2.8043 N.pl3   
  21 N21            7.2475    10.1198    -0.7769 N.pl3   
  22 O22            7.9547    11.1040    -0.8983 O.2     
  23 O23            7.4614     9.3229     0.1191 O.2     
  24 C24           -0.9900     1.7492    -0.2045 C.3     
  25 H25           -0.4877    -0.8949    -0.3844 H       
  26 H26            1.7301    -2.0021    -0.5537 H       
  27 H27            3.7712    -0.5885    -0.5589 H       
  28 H28            6.9239     3.1478    -0.4711 H       
  29 H29            6.7692     6.5119    -2.3364 H       
  30 H30            7.6142     7.6615    -1.2717 H       
  31 H31            7.9175     5.2459    -0.5873 H       
  32 H32            7.1700     6.2517     0.6810 H       
  33 H33            3.6784     4.8333    -0.4211 H       
  34 H34            4.3143     5.9737     0.7929 H       
  35 H35            3.4569     7.2568    -1.1087 H       
  36 H36            4.4222     6.2834    -2.2444 H       
  37 H37            4.1176    10.7123    -4.0732 H       
  38 H38            3.7874     8.3537    -3.1079 H       
  39 H39           -1.2722     1.8486     0.8436 H       
  40 H40           -0.9328     2.7375    -0.6606 H       
  41 H41           -1.7364     1.1507    -0.7266 H       
@<TRIPOS>BOND
   1    1    2 ar
   2    1    6 ar
   3    1   24 1
   4    2    3 ar
   5    2   25 1
   6    3    4 ar
   7    3   26 1
   8    4    5 ar
   9    4   27 1
  10    5    6 ar
  11    5    7 1
  12    7    8 3
  13    8    9 1
  14    9   13 2
  15    9   28 1
  16   10   11 1
  17   10   15 1
  18   10   19 1
  19   11   12 1
  20   11   29 1
  21   11   30 1
  22   12   13 1
  23   12   31 1
  24   12   32 1
  25   13   14 1
  26   14   15 1
  27   14   33 1
  28   14   34 1
  29   15   35 1
  30   15   36 1
  31   16   17 2
  32   16   20 1
  33   16   37 1
  34   17   18 1
  35   18   19 2
  36   18   21 1
  37   19   20 1
  38   20   38 1
  39   21   22 2
  40   21   23 2
  41   24   39 1
  42   24   40 1
  43   24   41 1

#	End of record

