#	Name: ASD01884218
#	Creating user name:	WinNT
#	Creation time:	15. 06. 2019 19:47

#	Modifying user name:	WinNT
#	Modification time:	15. 06. 2019 19:47

#	Program:	/corina/corina34_cracker 3.40 0067  02.08.2006

@<TRIPOS>MOLECULE
ASD01884218
  40   43    0    0    0
SMALL
NO_CHARGES


@<TRIPOS>ATOM
   1 C1            -0.0169     1.3920     0.0097 C.ar    
   2 C2             0.0021    -0.0041     0.0020 C.ar    
   3 C3            -1.1683    -0.7205     0.0093 C.ar    
   4 C4            -2.4132    -0.0698     0.0246 C.ar    
   5 C5            -2.4165     1.3273     0.0322 C.ar    
   6 C6            -1.2432     2.0547     0.0308 C.ar    
   7 C7             1.2502     2.1592     0.0017 C.ar    
   8 N8            -3.6704    -0.6444     0.0335 N.am    
   9 C9            -4.7412     0.1548     0.0480 C.2     
  10 S10           -4.1177     1.8129     0.0510 S.3     
  11 O11           -5.9092    -0.1874     0.0572 O.2     
  12 C12           -3.8257    -2.1011     0.0267 C.3     
  13 C13           -3.8659    -2.6165     1.4667 C.3     
  14 C14           -4.1416    -4.1068     1.6762 C.3     
  15 C15           -2.7377    -3.5475     1.9156 C.3     
  16 C16            2.2695     1.8517     0.9225 C.ar    
  17 C17            3.4625     2.5867     0.9016 C.ar    
  18 C18            3.6276     3.6063    -0.0223 C.ar    
  19 C19            2.6214     3.9025    -0.9238 C.ar    
  20 C20            1.4416     3.1840    -0.9198 C.ar    
  21 C21            2.0886     0.7964     1.8735 C.1     
  22 N22            1.9452    -0.0407     2.6279 N.1     
  23 O23            4.4532     2.3010     1.7840 O.3     
  24 C24            5.6409     3.0916     1.7042 C.3     
  25 H25            0.9477    -0.5256    -0.0101 H       
  26 H26           -1.1319    -1.7999     0.0028 H       
  27 H27           -1.2753     3.1342     0.0367 H       
  28 H28           -4.7541    -2.3651    -0.4797 H       
  29 H29           -2.9843    -2.5538    -0.4979 H       
  30 H30           -4.2687    -1.9217     2.2036 H       
  31 H31           -4.7254    -4.3925     2.5512 H       
  32 H32           -4.2943    -4.7201     0.7882 H       
  33 H33           -1.9669    -3.7928     1.1850 H       
  34 H34           -2.3980    -3.4651     2.9480 H       
  35 H35            4.5469     4.1730    -0.0381 H       
  36 H36            2.7609     4.6992    -1.6394 H       
  37 H37            0.6626     3.4235    -1.6285 H       
  38 H38            6.0870     2.9782     0.7162 H       
  39 H39            5.3920     4.1393     1.8724 H       
  40 H40            6.3496     2.7601     2.4631 H       
@<TRIPOS>BOND
   1    1    2 ar
   2    1    7 1
   3    1    6 ar
   4    2    3 ar
   5    2   25 1
   6    3    4 ar
   7    3   26 1
   8    4    5 ar
   9    4    8 1
  10    5    6 ar
  11    5   10 1
  12    6   27 1
  13    7   16 ar
  14    7   20 ar
  15    8    9 am
  16    8   12 1
  17    9   10 1
  18    9   11 2
  19   12   13 1
  20   12   28 1
  21   12   29 1
  22   13   14 1
  23   13   15 1
  24   13   30 1
  25   14   15 1
  26   14   31 1
  27   14   32 1
  28   15   33 1
  29   15   34 1
  30   16   17 ar
  31   16   21 1
  32   17   18 ar
  33   17   23 1
  34   18   19 ar
  35   18   35 1
  36   19   20 ar
  37   19   36 1
  38   20   37 1
  39   21   22 3
  40   23   24 1
  41   24   38 1
  42   24   39 1
  43   24   40 1

#	End of record

