#	Name: ASD03950083
#	Creating user name:	WinNT
#	Creation time:	15. 06. 2019 20:48

#	Modifying user name:	WinNT
#	Modification time:	15. 06. 2019 20:48

#	Program:	/corina/corina34_cracker 3.40 0067  02.08.2006

@<TRIPOS>MOLECULE
ASD03950083
  41   44    0    0    0
SMALL
NO_CHARGES


@<TRIPOS>ATOM
   1 N1            -0.0169     1.3942     0.0097 N.pl3   
   2 N2             0.0021    -0.0041     0.0020 N.2     
   3 C3             1.2312    -0.4340    -0.0120 C.2     
   4 C4             2.1095     0.7332    -0.0141 C.ar    
   5 C5             3.4974     0.8987    -0.0264 C.ar    
   6 C6             4.0419     2.1744    -0.0248 C.ar    
   7 C7             3.2128     3.2966    -0.0104 C.ar    
   8 C8             1.8310     3.1495     0.0020 C.ar    
   9 C9             1.2670     1.8605    -0.0000 C.ar    
  10 C10            0.9593     4.3395     0.0166 C.2     
  11 O11           -0.2495     4.2077     0.0275 O.2     
  12 N12            1.5026     5.5729     0.0181 N.am    
  13 N13            7.5093     3.2549    -0.0531 N.pl3   
  14 N14            7.6620     1.8631    -0.0620 N.2     
  15 C15            6.4755     1.3154    -0.0531 C.2     
  16 C16            5.5173     2.3471    -0.0379 C.2     
  17 C17            6.1897     3.5336    -0.0383 C.2     
  18 N18            0.9737    -4.6788    -0.0264 N.3     
  19 C19            1.5340    -4.0590     1.1812 C.3     
  20 C20            1.1385    -2.5813     1.2282 C.3     
  21 C21            1.6687    -1.8760    -0.0232 C.3     
  22 C22            1.1086    -2.5711    -1.2672 C.3     
  23 C23            1.5050    -4.0490    -1.2419 C.3     
  24 H24           -0.8150     1.9455     0.0166 H       
  25 H25            4.1450     0.0344    -0.0369 H       
  26 H26            3.6475     4.2853    -0.0086 H       
  27 H27            2.4669     5.6781     0.0094 H       
  28 H28            0.9295     6.3554     0.0277 H       
  29 H29            8.2283     3.9060    -0.0532 H       
  30 H30            6.2663     0.2558    -0.0570 H       
  31 H31            5.7459     4.5182    -0.0283 H       
  32 H32            1.1401    -5.6740    -0.0324 H       
  33 H33            1.1457    -4.5671     2.0639 H       
  34 H34            2.6206    -4.1436     1.1622 H       
  35 H35            0.0523    -2.4963     1.2612 H       
  36 H36            1.5676    -2.1178     2.1165 H       
  37 H37            2.7575    -1.9263    -0.0358 H       
  38 H38            0.0220    -2.4858    -1.2735 H       
  39 H39            1.5163    -2.1003    -2.1618 H       
  40 H40            2.5917    -4.1337    -1.2496 H       
  41 H41            1.0956    -4.5499    -2.1191 H       
@<TRIPOS>BOND
   1    1    2 1
   2    1    9 1
   3    1   24 1
   4    2    3 2
   5    3    4 1
   6    3   21 1
   7    4    5 ar
   8    4    9 ar
   9    5    6 ar
  10    5   25 1
  11    6    7 ar
  12    6   16 1
  13    7    8 ar
  14    7   26 1
  15    8    9 ar
  16    8   10 1
  17   10   11 2
  18   10   12 am
  19   12   27 1
  20   12   28 1
  21   13   14 1
  22   13   17 1
  23   13   29 1
  24   14   15 2
  25   15   16 1
  26   15   30 1
  27   16   17 2
  28   17   31 1
  29   18   19 1
  30   18   23 1
  31   18   32 1
  32   19   20 1
  33   19   33 1
  34   19   34 1
  35   20   21 1
  36   20   35 1
  37   20   36 1
  38   21   22 1
  39   21   37 1
  40   22   23 1
  41   22   38 1
  42   22   39 1
  43   23   40 1
  44   23   41 1

#	End of record

