#	Name: ASD01420094
#	Creating user name:	WinNT
#	Creation time:	15. 06. 2019 19:20

#	Modifying user name:	WinNT
#	Modification time:	15. 06. 2019 19:20

#	Program:	/corina/corina34_cracker 3.40 0067  02.08.2006

@<TRIPOS>MOLECULE
ASD01420094
  39   41    0    0    0
SMALL
NO_CHARGES


@<TRIPOS>ATOM
   1 C1            -0.0144     1.2120     0.0087 C.2     
   2 O2             0.1253     0.1699     0.6199 O.2     
   3 C3             2.4241     2.9940    -2.1849 C.3     
   4 O4             3.2571     3.4166    -1.0688 O.3     
   5 C5             3.2581     2.3450    -0.1051 C.3     
   6 C6             2.4137     1.2035    -0.7537 C.3     
   7 N7             1.0137     1.7217    -0.6981 N.am    
   8 C8             0.9888     2.9094    -1.5794 C.3     
   9 C9             2.7683     1.4634    -2.2628 C.3     
  10 C10           -1.3091     1.9140     0.0360 C.ar    
  11 C11           -2.5064     1.1879    -0.0573 C.ar    
  12 C12           -3.7185     1.8553    -0.0303 C.ar    
  13 C13           -3.7477     3.2372     0.0880 C.ar    
  14 C14           -2.5615     3.9585     0.1805 C.ar    
  15 C15           -1.3503     3.3060     0.1607 C.ar    
  16 C16           -2.6035     5.4595     0.3088 C.3     
  17 C17           -1.9289     5.8787     1.6165 C.3     
  18 C18           -1.8652     6.0931    -0.8720 C.3     
  19 O19           -4.9382     3.8883     0.1131 O.3     
  20 O20           -2.4757    -0.1633    -0.1738 O.3     
  21 H21            2.5249     3.5723    -3.1033 H       
  22 H22            4.2768     2.0033     0.0784 H       
  23 H23            2.7962     2.6740     0.8257 H       
  24 H24            2.5741     0.1979    -0.3649 H       
  25 H25            0.7687     3.8062    -1.0002 H       
  26 H26            0.2510     2.7782    -2.3710 H       
  27 H27            2.1112     0.9229    -2.9440 H       
  28 H28            3.8213     1.2839    -2.4800 H       
  29 H29           -4.6421     1.3001    -0.1018 H       
  30 H30           -0.4319     3.8690     0.2373 H       
  31 H31           -3.6406     5.7950     0.3111 H       
  32 H32           -0.8918     5.5432     1.6141 H       
  33 H33           -1.9593     6.9643     1.7092 H       
  34 H34           -2.4550     5.4273     2.4577 H       
  35 H35           -0.8281     5.7576    -0.8743 H       
  36 H36           -2.3458     5.7945    -1.8036 H       
  37 H37           -1.8956     7.1788    -0.7792 H       
  38 H38           -5.3061     4.0012     1.0003 H       
  39 H39           -2.4890    -0.6315     0.6722 H       
@<TRIPOS>BOND
   1    1    2 2
   2    1    7 am
   3    1   10 1
   4    3    4 1
   5    3    8 1
   6    3    9 1
   7    3   21 1
   8    4    5 1
   9    5    6 1
  10    5   22 1
  11    5   23 1
  12    6    7 1
  13    6    9 1
  14    6   24 1
  15    7    8 1
  16    8   25 1
  17    8   26 1
  18    9   27 1
  19    9   28 1
  20   10   11 ar
  21   10   15 ar
  22   11   12 ar
  23   11   20 1
  24   12   13 ar
  25   12   29 1
  26   13   14 ar
  27   13   19 1
  28   14   15 ar
  29   14   16 1
  30   15   30 1
  31   16   17 1
  32   16   18 1
  33   16   31 1
  34   17   32 1
  35   17   33 1
  36   17   34 1
  37   18   35 1
  38   18   36 1
  39   18   37 1
  40   19   38 1
  41   20   39 1

#	End of record

