#	Name: ASD01916610
#	Creating user name:	WinNT
#	Creation time:	15. 06. 2019 20:07

#	Modifying user name:	WinNT
#	Modification time:	15. 06. 2019 20:07

#	Program:	/corina/corina34_cracker 3.40 0067  02.08.2006

@<TRIPOS>MOLECULE
ASD01916610
  40   43    0    0    0
SMALL
NO_CHARGES


@<TRIPOS>ATOM
   1 C1            -0.0171     1.4078     0.0098 C.ar    
   2 C2             0.0021    -0.0041     0.0020 C.ar    
   3 N3            -1.1272    -0.7011     0.0076 N.ar    
   4 C4            -2.2985    -0.1111     0.0179 C.ar    
   5 C5            -2.4083     1.2899     0.0254 C.ar    
   6 C6            -1.2495     2.0680     0.0193 C.ar    
   7 N7             1.1541     2.0896     0.0023 N.2     
   8 C8             2.3025     1.4831    -0.0197 C.2     
   9 N9             2.4128     0.1206    -0.0260 N.am    
  10 C10            1.3187    -0.6668    -0.0146 C.2     
  11 C11           -3.6973     1.9136     0.0362 C.1     
  12 O12            1.4145    -1.8803    -0.0174 O.2     
  13 C13           -4.7541     2.4249     0.0451 C.1     
  14 C14           -6.0431     3.0485     0.0559 C.ar    
  15 N15           -6.1345     4.3749     0.0629 N.ar    
  16 C16           -7.3012     4.9857     0.0725 C.ar    
  17 C17           -8.4815     4.2643     0.0757 C.ar    
  18 C18           -8.4331     2.8768     0.0687 C.ar    
  19 C19           -7.1958     2.2587     0.0533 C.ar    
  20 C20            3.5801     2.2931    -0.0465 C.3     
  21 C21            4.1966     2.2063    -1.4404 C.3     
  22 C22            5.1135     1.0017    -1.5610 C.3     
  23 C23            4.3563    -0.3097    -1.4396 C.3     
  24 C24            3.7562    -0.4712    -0.0444 C.3     
  25 F25            3.3276    -0.3351    -2.3874 F       
  26 F26            5.2335    -1.3709    -1.6876 F       
  27 H27           -3.1952    -0.7131     0.0204 H       
  28 H28           -1.3033     3.1467     0.0260 H       
  29 H29           -7.3369     6.0651     0.0783 H       
  30 H30           -9.4325     4.7761     0.0840 H       
  31 H31           -9.3417     2.2929     0.0714 H       
  32 H32           -7.1217     1.1813     0.0471 H       
  33 H33            3.3570     3.3337     0.1893 H       
  34 H34            4.2803     1.8939     0.6873 H       
  35 H35            3.3994     2.1239    -2.1792 H       
  36 H36            4.7700     3.1127    -1.6346 H       
  37 H37            5.6136     1.0332    -2.5290 H       
  38 H38            5.8662     1.0499    -0.7740 H       
  39 H39            4.3878     0.0363     0.6847 H       
  40 H40            3.6910    -1.5306     0.2036 H       
@<TRIPOS>BOND
   1    1    2 ar
   2    1    7 1
   3    1    6 ar
   4    2    3 ar
   5    2   10 1
   6    3    4 ar
   7    4    5 ar
   8    4   27 1
   9    5    6 ar
  10    5   11 1
  11    6   28 1
  12    7    8 2
  13    8    9 1
  14    8   20 1
  15    9   10 am
  16    9   24 1
  17   10   12 2
  18   11   13 3
  19   13   14 1
  20   14   15 ar
  21   14   19 ar
  22   15   16 ar
  23   16   17 ar
  24   16   29 1
  25   17   18 ar
  26   17   30 1
  27   18   19 ar
  28   18   31 1
  29   19   32 1
  30   20   21 1
  31   20   33 1
  32   20   34 1
  33   21   22 1
  34   21   35 1
  35   21   36 1
  36   22   23 1
  37   22   37 1
  38   22   38 1
  39   23   24 1
  40   23   25 1
  41   23   26 1
  42   24   39 1
  43   24   40 1

#	End of record

