#	Name: ASD01811934
#	Creating user name:	WinNT
#	Creation time:	15. 06. 2019 19:27

#	Modifying user name:	WinNT
#	Modification time:	15. 06. 2019 19:27

#	Program:	/corina/corina34_cracker 3.40 0067  02.08.2006

@<TRIPOS>MOLECULE
ASD01811934
  52   56    0    0    0
SMALL
NO_CHARGES


@<TRIPOS>ATOM
   1 C1            -0.0167     1.3784     0.0096 C.ar    
   2 C2             0.0021    -0.0041     0.0020 C.ar    
   3 C3             1.2135    -0.6830    -0.0132 C.ar    
   4 C4             2.4138     0.0397    -0.0209 C.ar    
   5 C5             2.3794     1.4367    -0.0130 C.ar    
   6 C6             1.1688     2.0949     0.0021 C.ar    
   7 F7            -1.1589    -0.6949     0.0099 F       
   8 C8             3.6690    -0.6495    -0.0361 C.1     
   9 N9             4.6647    -1.1963    -0.0482 N.1     
  10 O10            1.2345    -2.0403    -0.0203 O.3     
  11 C11            1.2327    -2.6709    -1.2211 C.ar    
  12 C12            1.2098    -1.9336    -2.3957 C.ar    
  13 C13            1.2079    -2.5739    -3.6192 C.ar    
  14 C14            1.2293    -3.9586    -3.6839 C.ar    
  15 C15            1.2526    -4.7027    -2.5286 C.ar    
  16 C16            1.2597    -4.0715    -1.2815 C.ar    
  17 C17            1.2789    -6.1859    -2.2550 C.3     
  18 N18            1.2957    -6.3326    -0.7950 N.am    
  19 C19            1.2853    -5.1093    -0.2377 C.2     
  20 O20            1.2950    -4.8911     0.9584 O.2     
  21 C21            1.3231    -7.6025    -0.0652 C.3     
  22 C22            2.7531    -8.0154     0.1710 C.ar    
  23 C23            3.4077    -7.6066     1.3188 C.ar    
  24 C24            4.7173    -7.9822     1.5403 C.ar    
  25 C25            5.3796    -8.7745     0.6054 C.ar    
  26 C26            4.7157    -9.1834    -0.5489 C.ar    
  27 C27            3.4044    -8.8064    -0.7580 C.ar    
  28 C28            6.7885    -9.1812     0.8381 C.2     
  29 C29            7.5789    -8.8431     1.9537 C.2     
  30 N30            8.7570    -9.3862     1.7961 N.2     
  31 N31            8.7653   -10.0867     0.5839 N.pl3   
  32 C32            7.5510    -9.9553     0.0130 C.2     
  33 C33            9.8966   -10.8373     0.0334 C.3     
  34 H34           -0.9609     1.9026     0.0169 H       
  35 H35            3.3009     2.0000    -0.0185 H       
  36 H36            1.1442     3.1746     0.0078 H       
  37 H37            1.1931    -0.8545    -2.3532 H       
  38 H38            1.1894    -1.9934    -4.5297 H       
  39 H39            1.2274    -4.4535    -4.6439 H       
  40 H40            0.3886    -6.6592    -2.6690 H       
  41 H41            2.1755    -6.6307    -2.6866 H       
  42 H42            0.8167    -7.4823     0.8925 H       
  43 H43            0.8156    -8.3691    -0.6508 H       
  44 H44            2.8934    -6.9921     2.0429 H       
  45 H45            5.2277    -7.6622     2.4367 H       
  46 H46            5.2246    -9.7977    -1.2769 H       
  47 H47            2.8887    -9.1229    -1.6526 H       
  48 H48            7.2660    -8.2398     2.7931 H       
  49 H49            7.2403   -10.3802    -0.9301 H       
  50 H50            9.8526   -11.8689     0.3827 H       
  51 H51            9.8487   -10.8201    -1.0554 H       
  52 H52           10.8301   -10.3815     0.3633 H       
@<TRIPOS>BOND
   1    1    2 ar
   2    1    6 ar
   3    1   34 1
   4    2    3 ar
   5    2    7 1
   6    3    4 ar
   7    3   10 1
   8    4    5 ar
   9    4    8 1
  10    5    6 ar
  11    5   35 1
  12    6   36 1
  13    8    9 3
  14   10   11 1
  15   11   12 ar
  16   11   16 ar
  17   12   13 ar
  18   12   37 1
  19   13   14 ar
  20   13   38 1
  21   14   15 ar
  22   14   39 1
  23   15   16 ar
  24   15   17 1
  25   16   19 1
  26   17   18 1
  27   17   40 1
  28   17   41 1
  29   18   19 am
  30   18   21 1
  31   19   20 2
  32   21   22 1
  33   21   42 1
  34   21   43 1
  35   22   23 ar
  36   22   27 ar
  37   23   24 ar
  38   23   44 1
  39   24   25 ar
  40   24   45 1
  41   25   26 ar
  42   25   28 1
  43   26   27 ar
  44   26   46 1
  45   27   47 1
  46   28   29 1
  47   28   32 2
  48   29   30 2
  49   29   48 1
  50   30   31 1
  51   31   32 1
  52   31   33 1
  53   32   49 1
  54   33   50 1
  55   33   51 1
  56   33   52 1

#	End of record

