#	Name: ASD00431046
#	Creating user name:	WinNT
#	Creation time:	15. 06. 2019 18:35

#	Modifying user name:	WinNT
#	Modification time:	15. 06. 2019 18:35

#	Program:	/corina/corina34_cracker 3.40 0067  02.08.2006

@<TRIPOS>MOLECULE
ASD00431046
  81   83    0    0    0
SMALL
NO_CHARGES


@<TRIPOS>ATOM
   1 C1             0.6001     0.9127    -0.4684 C.3     
   2 O2            -5.1574    -2.7276    -1.7024 O.2     
   3 C3            -1.1931     2.2603     0.5878 C.2     
   4 C4             0.1375     1.5929     0.8218 C.3     
   5 O5            -4.7251     1.1168    -0.1548 O.3     
   6 C6            -4.6140     1.6590     1.1628 C.3     
   7 C7            -3.5151     2.7227     1.1871 C.3     
   8 C8            -2.1822     2.0584     1.4221 C.2     
   9 C9             0.3291    -0.5905    -0.3791 C.3     
  10 C10            0.7564    -1.2634    -1.6851 C.3     
  11 C11           -0.1176    -2.4940    -1.9353 C.3     
  12 C12           -1.2742    -2.1184    -2.8638 C.3     
  13 C13           -2.5995    -2.5288    -2.2188 C.3     
  14 O14           -3.4635    -1.3672    -2.1074 O.3     
  15 C15           -4.7593    -1.5952    -1.8411 C.2     
  16 C16           -5.7172    -0.4391    -1.7155 C.3     
  17 C17           -5.7032     0.0821    -0.2766 C.3     
  18 C18           -7.0832     0.6400     0.0756 C.3     
  19 C19           -7.0529     1.2353     1.4843 C.3     
  20 C20           -5.9474     2.2907     1.5680 C.3     
  21 O21           -5.3789    -0.9872     0.6140 O.3     
  22 O22           -6.7952     0.1991     2.4339 O.3     
  23 C23           -2.3368    -3.0930    -0.8464 C.ar    
  24 C24           -2.3313    -2.2575     0.2550 C.ar    
  25 C25           -2.1068    -4.4468    -0.6880 C.ar    
  26 C26           -1.8658    -4.9644     0.5709 C.ar    
  27 C27           -1.8543    -4.1280     1.6715 C.ar    
  28 C28           -2.0903    -2.7751     1.5139 C.ar    
  29 C29           -6.2730     3.4477     0.6214 C.3     
  30 O30            2.0004     1.1343    -0.6479 O.3     
  31 C31            2.4116     1.1760    -2.0158 C.3     
  32 O32            0.0047     0.6147     1.8549 O.3     
  33 C33            0.2469     1.1208     3.1692 C.3     
  34 C34           -7.1293    -0.9055    -2.0751 C.3     
  35 C35           -3.7944     3.7196     2.3137 C.3     
  36 O36           -7.4388     1.6571    -0.8631 O.3     
  37 C37           -8.8450     1.7742    -1.0884 C.3     
  38 H38            0.0548     1.3304    -1.3148 H       
  39 H39           -1.3307     2.9056    -0.2673 H       
  40 H40            0.8715     2.3409     1.1216 H       
  41 H41           -4.3627     0.8619     1.8630 H       
  42 H42           -3.4964     3.2482     0.2323 H       
  43 H43           -2.0438     1.4157     2.2790 H       
  44 H44            0.8963    -1.0134     0.4501 H       
  45 H45           -0.7352    -0.7588    -0.2149 H       
  46 H46            0.6399    -0.5612    -2.5106 H       
  47 H47            1.8004    -1.5680    -1.6122 H       
  48 H48            0.4818    -3.2769    -2.4000 H       
  49 H49           -0.5155    -2.8558    -0.9872 H       
  50 H50           -1.2701    -1.0415    -3.0321 H       
  51 H51           -1.1582    -2.6355    -3.8163 H       
  52 H52           -3.0850    -3.2849    -2.8357 H       
  53 H53           -5.4145     0.3587    -2.3937 H       
  54 H54           -7.8198    -0.1625     0.0366 H       
  55 H55           -8.0148     1.6985     1.7038 H       
  56 H56           -5.8776     2.6642     2.5896 H       
  57 H57           -4.5153    -1.3894     0.4477 H       
  58 H58           -7.4572    -0.5057     2.4363 H       
  59 H59           -2.5151    -1.2004     0.1318 H       
  60 H60           -2.1157    -5.1003    -1.5479 H       
  61 H61           -1.6868    -6.0222     0.6947 H       
  62 H62           -1.6664    -4.5324     2.6551 H       
  63 H63           -2.0814    -2.1216     2.3737 H       
  64 H64           -7.2858     3.8013     0.8147 H       
  65 H65           -5.5666     4.2614     0.7857 H       
  66 H66           -6.1987     3.1048    -0.4106 H       
  67 H67            1.8898     1.9847    -2.5276 H       
  68 H68            3.4868     1.3477    -2.0669 H       
  69 H69            2.1718     0.2275    -2.4964 H       
  70 H70            0.1265     0.3174     3.8959 H       
  71 H71            1.2624     1.5129     3.2261 H       
  72 H72           -0.4632     1.9182     3.3881 H       
  73 H73           -7.4320    -1.7035    -1.3971 H       
  74 H74           -7.8224    -0.0692    -1.9843 H       
  75 H75           -7.1395    -1.2762    -3.1001 H       
  76 H76           -3.9048     3.1820     3.2554 H       
  77 H77           -2.9644     4.4219     2.3914 H       
  78 H78           -4.7128     4.2650     2.0968 H       
  79 H79           -9.0322     2.5671    -1.8125 H       
  80 H80           -9.2309     0.8308    -1.4748 H       
  81 H81           -9.3446     2.0139    -0.1498 H       
@<TRIPOS>BOND
   1    1    9 1
   2    1   30 1
   3    1    4 1
   4    1   38 1
   5    2   15 2
   6    3    4 1
   7    3    8 2
   8    3   39 1
   9    4   32 1
  10    4   40 1
  11    5    6 1
  12    5   17 1
  13    6    7 1
  14    6   20 1
  15    6   41 1
  16    7    8 1
  17    7   35 1
  18    7   42 1
  19    8   43 1
  20    9   10 1
  21    9   44 1
  22    9   45 1
  23   10   11 1
  24   10   46 1
  25   10   47 1
  26   11   12 1
  27   11   48 1
  28   11   49 1
  29   12   13 1
  30   12   50 1
  31   12   51 1
  32   13   14 1
  33   13   23 1
  34   13   52 1
  35   14   15 1
  36   15   16 1
  37   16   17 1
  38   16   34 1
  39   16   53 1
  40   17   21 1
  41   17   18 1
  42   18   19 1
  43   18   36 1
  44   18   54 1
  45   19   20 1
  46   19   22 1
  47   19   55 1
  48   20   29 1
  49   20   56 1
  50   21   57 1
  51   22   58 1
  52   23   24 ar
  53   23   25 ar
  54   24   28 ar
  55   24   59 1
  56   25   26 ar
  57   25   60 1
  58   26   27 ar
  59   26   61 1
  60   27   28 ar
  61   27   62 1
  62   28   63 1
  63   29   64 1
  64   29   65 1
  65   29   66 1
  66   30   31 1
  67   31   67 1
  68   31   68 1
  69   31   69 1
  70   32   33 1
  71   33   70 1
  72   33   71 1
  73   33   72 1
  74   34   73 1
  75   34   74 1
  76   34   75 1
  77   35   76 1
  78   35   77 1
  79   35   78 1
  80   36   37 1
  81   37   79 1
  82   37   80 1
  83   37   81 1

#	End of record

