#	Name: ASD04570008
#	Creating user name:	WinNT
#	Creation time:	15. 06. 2019 20:49

#	Modifying user name:	WinNT
#	Modification time:	15. 06. 2019 20:49

#	Program:	/corina/corina34_cracker 3.40 0067  02.08.2006

@<TRIPOS>MOLECULE
ASD04570008
 280  284    0    0    0
SMALL
NO_CHARGES


@<TRIPOS>ATOM
   1 C1            10.1104     3.8657    -4.3297 C.3     
   2 C2            10.9836     4.4938    -3.2416 C.3     
   3 C3            10.5633     5.9244    -3.0237 C.2     
   4 N4            10.8243     3.7406    -1.9905 N.3     
   5 O5            10.1698     6.2815    -1.9335 O.2     
   6 C6            10.6165     2.4554    -4.6390 C.3     
   7 C7             9.6709     1.7812    -5.6351 C.3     
   8 C8            12.0195     2.5382    -5.2437 C.3     
   9 C9             9.8823     1.5884    -0.4970 C.3     
  10 C10            9.2759     2.9804    -0.3090 C.3     
  11 C11            9.9767     3.6848     0.8240 C.2     
  12 N12            9.4404     3.7572    -1.5449 N.3     
  13 O13           10.5561     4.7309     0.6219 O.2     
  14 O14           11.2969     1.7035    -0.6634 O.3     
  15 C15            9.7083     4.8913     3.7632 C.3     
  16 C16           10.6408     3.8370     3.1635 C.3     
  17 C17           11.0134     2.8340     4.2247 C.2     
  18 N18            9.9595     3.1523     2.0620 N.am    
  19 O19           10.7371     1.6625     4.0756 O.2     
  20 C20            9.4339     5.9610     2.7376 C.ar    
  21 C21            8.3589     5.8331     1.8776 C.ar    
  22 C22            8.1052     6.8122     0.9367 C.ar    
  23 C23            8.9303     7.9245     0.8551 C.ar    
  24 C24           10.0084     8.0505     1.7191 C.ar    
  25 C25           10.2544     7.0713     2.6621 C.ar    
  26 O26            8.6832     8.8888    -0.0700 O.3     
  27 C27           13.3554     1.6165     6.0133 C.3     
  28 C28           12.0159     2.2637     6.3710 C.3     
  29 C29           12.1344     2.9609     7.7018 C.2     
  30 N30           11.6537     3.2388     5.3394 N.am    
  31 O31           11.9358     4.1548     7.7807 O.2     
  32 N32           14.3943    -0.6192     3.1345 N.pl3   
  33 C33           15.4732    -1.2947     2.6149 C.2     
  34 N34           15.3424    -1.9861     1.5177 N.2     
  35 N35           16.6900    -1.2410     3.2527 N.pl3   
  36 C36           13.2019     0.8050     4.7254 C.3     
  37 C37           14.5413     0.1579     4.3677 C.3     
  38 C38           11.1944     3.0325    10.7477 C.3     
  39 C39           12.5762     2.9356    10.0979 C.3     
  40 C40           13.4994     2.1521    10.9951 C.2     
  41 N41           12.4610     2.2578     8.8042 N.am    
  42 O42           13.8168     1.0199    10.6982 O.2     
  43 S43           10.1258     4.0974     9.7404 S.3     
  44 C44           13.7545     4.0998    12.5537 C.3     
  45 C45           14.4560     4.2761    13.9169 C.3     
  46 C46           14.7928     2.0264    13.1438 C.3     
  47 C47           14.3421     0.5978    13.3080 C.2     
  48 N48           13.9723     2.7097    12.1273 N.am    
  49 O49           13.2359     0.2647    12.9389 O.2     
  50 C50           14.5491     2.8221    14.4504 C.3     
  51 C51           14.9954    -2.4689    12.7296 C.3     
  52 C52           14.7302    -1.6985    14.0246 C.3     
  53 C53           15.4931    -2.3391    15.1554 C.2     
  54 N54           15.1683    -0.3097    13.8650 N.am    
  55 O55           16.3212    -1.6986    15.7677 O.2     
  56 S56           14.0772    -1.6978    11.3684 S.3     
  57 C57           15.3036    -3.9297    17.9123 C.3     
  58 C58           15.9967    -4.2465    16.5856 C.3     
  59 C59           16.0356    -5.7393    16.3831 C.2     
  60 N60           15.2551    -3.6237    15.4863 N.am    
  61 O61           15.4970    -6.2343    15.4158 O.2     
  62 N62           14.7486    -0.6666    19.7589 N.pl3   
  63 C63           14.1888    -0.1430    20.9002 C.2     
  64 N64           14.2489     1.1392    21.1265 N.2     
  65 N65           13.5656    -0.9718    21.8029 N.pl3   
  66 C66           15.3741    -2.4246    18.1779 C.3     
  67 C67           14.6810    -2.1078    19.5046 C.3     
  68 C68           17.8738    -8.3349    16.1580 C.3     
  69 C69           16.7069    -7.9755    17.0801 C.3     
  70 C70           16.8897    -8.6584    18.4110 C.2     
  71 N71           16.6691    -6.5243    17.2770 N.am    
  72 O72           16.9796    -7.9979    19.4242 O.2     
  73 C73           17.6300    -7.7531    14.7893 C.ar    
  74 C74           18.0844    -6.4830    14.4872 C.ar    
  75 C75           17.8608    -5.9494    13.2318 C.ar    
  76 C76           17.1831    -6.6860    12.2784 C.ar    
  77 C77           16.7295    -7.9564    12.5802 C.ar    
  78 C78           16.9569    -8.4917    13.8342 C.ar    
  79 C79           15.7687   -10.8457    20.4421 C.3     
  80 C80           17.1311   -10.6670    19.7692 C.3     
  81 C81           17.7681   -12.0163    19.5581 C.2     
  82 N82           16.9534   -10.0031    18.4754 N.am    
  83 O83           18.0462   -12.3870    18.4374 O.2     
  84 C84           15.1864    -9.4937    20.7643 C.ar    
  85 C85           14.3865    -8.8476    19.8404 C.ar    
  86 C86           13.8524    -7.6073    20.1360 C.ar    
  87 C87           14.1177    -7.0134    21.3557 C.ar    
  88 C88           14.9168    -7.6599    22.2800 C.ar    
  89 C89           15.4474    -8.9021    21.9861 C.ar    
  90 C90           20.1681   -13.9641    20.3407 C.3     
  91 C91           18.6479   -14.1230    20.4098 C.3     
  92 C92           18.2894   -15.0325    21.5566 C.2     
  93 N93           18.0287   -12.8112    20.6149 N.am    
  94 O94           17.5860   -14.6252    22.4566 O.2     
  95 C95           20.5395   -13.1434    19.1040 C.3     
  96 C96           22.0368   -12.9870    19.0360 C.2     
  97 O97           22.7352   -13.4812    19.8891 O.2     
  98 O98           22.5945   -12.2985    18.0277 O.3     
  99 C99           17.0464   -17.8377    22.4240 C.3     
 100 C100          18.4021   -17.1829    22.6969 C.3     
 101 C101          19.4560   -18.2507    22.8395 C.2     
 102 N102          18.7506   -16.2987    21.5820 N.am    
 103 O103          20.4047   -18.2710    22.0843 O.2     
 104 O104          17.1508   -18.6913    21.2828 O.3     
 105 C105          20.3839   -20.7330    25.3868 C.3     
 106 C106          20.3687   -20.2209    23.9451 C.3     
 107 C107          20.0582   -21.3613    23.0102 C.2     
 108 N108          19.3442   -19.1829    23.8064 N.am    
 109 O109          19.0819   -21.3121    22.3011 O.2     
 110 C110          20.8142   -19.6223    26.3099 C.2     
 111 N111          19.9939   -18.7745    27.0042 N.pl3   
 112 C112          20.7871   -17.9364    27.7056 C.2     
 113 N113          22.0332   -18.2406    27.4653 N.2     
 114 C114          22.0796   -19.2767    26.6148 C.2     
 115 C115          11.3924     8.9942    -3.2599 C.3     
 116 C116          10.2161     8.1980    -3.8285 C.3     
 117 C117           9.7889     8.8016    -5.1416 C.2     
 118 N118          10.6247     6.8072    -4.0404 N.am    
 119 O119           9.8225     8.1356    -6.1546 O.2     
 120 N120          13.2601     8.7446     0.0288 N.pl3   
 121 C121          14.2925     9.3087     0.7401 C.2     
 122 N122          14.5935     8.8536     1.9238 N.2     
 123 N123          15.0076    10.3529     0.2029 N.pl3   
 124 C124          11.7456     8.4599    -1.8704 C.3     
 125 C125          12.9219     9.2561    -1.3017 C.3     
 126 C126           7.4852    10.3309    -6.7292 C.3     
 127 C127           8.9543    10.6683    -6.4667 C.3     
 128 C128           9.1237    12.1647    -6.4105 C.2     
 129 N129           9.3696    10.0815    -5.1902 N.am    
 130 O130           9.5495    12.6894    -5.4033 O.2     
 131 O131           6.6679    10.9601    -5.7402 O.3     
 132 C132          10.4085    14.7386    -7.7855 C.3     
 133 C133           8.9669    14.3746    -7.4247 C.3     
 134 C134           8.0245    15.0241    -8.4051 C.2     
 135 N135           8.8022    12.9200    -7.4794 N.am    
 136 O136           7.2878    14.3393    -9.0828 O.2     
 137 C137           6.7821    18.4270    -9.0284 C.3     
 138 C138           7.0842    16.9973    -9.4819 C.3     
 139 C139           7.7218    17.0275   -10.8470 C.2     
 140 N140           8.0003    16.3660    -8.5288 N.am    
 141 O141           8.8274    16.5689   -11.0073 O.2     
 142 C142           6.0232    18.3912    -7.7003 C.3     
 143 S143           5.6650    20.0862    -7.1627 S.3     
 144 C144           4.7779    19.8397    -5.5997 C.3     
 145 H145           9.0786     3.8134    -3.9823 H       
 146 H146          10.1595     4.4754    -5.2319 H       
 147 H147          12.0280     4.4652    -3.5524 H       
 148 H148          11.1600     2.7946    -2.0927 H       
 149 H149          10.6513     1.8719    -3.7190 H       
 150 H150           9.6361     2.3646    -6.5551 H       
 151 H151          10.0314     0.7764    -5.8554 H       
 152 H152           8.6713     1.7222    -5.2043 H       
 153 H153          12.6932     3.0185    -4.5341 H       
 154 H154          12.3801     1.5334    -5.4640 H       
 155 H155          11.9848     3.1217    -6.1637 H       
 156 H156           9.6681     0.9773     0.3798 H       
 157 H157           9.4494     1.1199    -1.3809 H       
 158 H158           8.2149     2.8863    -0.0775 H       
 159 H159           9.1107     4.7032    -1.4241 H       
 160 H160          11.7484     0.8576    -0.7880 H       
 161 H161           8.7700     4.4212     4.0577 H       
 162 H162          10.1806     5.3390     4.6376 H       
 163 H163          11.5426     4.3208     2.7882 H       
 164 H164           9.4961     2.3156     2.2237 H       
 165 H165           7.7170     4.9668     1.9414 H       
 166 H166           7.2656     6.7117     0.2649 H       
 167 H167          10.6522     8.9154     1.6575 H       
 168 H168          11.0909     7.1710     3.3378 H       
 169 H169           8.0972     9.5921     0.2418 H       
 170 H170          14.1062     2.3929     5.8663 H       
 171 H171          13.6681     0.9573     6.8231 H       
 172 H172          11.2455     1.4950     6.4309 H       
 173 H173          11.8747     4.1757     5.4586 H       
 174 H174          13.5359    -0.6571     2.6845 H       
 175 H175          16.1036    -2.4627     1.1511 H       
 176 H176          16.7873    -0.7265     4.0692 H       
 177 H177          17.4511    -1.7176     2.8861 H       
 178 H178          12.4510     0.0287     4.8724 H       
 179 H179          12.8891     1.4643     3.9157 H       
 180 H180          14.8541    -0.5014     5.1774 H       
 181 H181          15.2922     0.9342     4.2206 H       
 182 H182          10.7547     2.0375    10.8166 H       
 183 H183          11.2918     3.4567    11.7471 H       
 184 H184          12.9785     3.9376     9.9486 H       
 185 H185          12.6198     1.3030     8.7411 H       
 186 H186           8.9652     4.0910    10.4200 H       
 187 H187          12.6868     4.2925    12.6585 H       
 188 H188          14.1868     4.7836    11.8232 H       
 189 H189          15.4502     4.7036    13.7867 H       
 190 H190          13.8538     4.8936    14.5834 H       
 191 H191          15.8465     2.0617    12.8672 H       
 192 H192          15.3879     2.7111    15.1377 H       
 193 H193          13.6153     2.5192    14.9240 H       
 194 H194          16.0621    -2.4478    12.5062 H       
 195 H195          14.6695    -3.5022    12.8483 H       
 196 H196          13.6636    -1.7196    14.2480 H       
 197 H197          16.0531    -0.0432    14.1602 H       
 198 H198          14.3995    -2.4661    10.3126 H       
 199 H199          14.2603    -4.2410    17.8606 H       
 200 H200          15.8028    -4.4650    18.7199 H       
 201 H201          17.0141    -3.8558    16.6048 H       
 202 H202          14.5928    -4.1360    14.9965 H       
 203 H203          15.1883    -0.0818    19.1221 H       
 204 H204          13.8539     1.5087    21.9318 H       
 205 H205          13.5208    -1.9261    21.6345 H       
 206 H206          13.1706    -0.6024    22.6081 H       
 207 H207          16.4175    -2.1133    18.2296 H       
 208 H208          14.8749    -1.8893    17.3702 H       
 209 H209          15.1803    -2.6430    20.3123 H       
 210 H210          13.6377    -2.4191    19.4529 H       
 211 H211          18.7985    -7.9274    16.5665 H       
 212 H212          17.9566    -9.4191    16.0824 H       
 213 H213          15.7716    -8.3054    16.6279 H       
 214 H214          17.0999    -6.1284    18.0506 H       
 215 H215          18.6139    -5.9075    15.2321 H       
 216 H216          18.2152    -4.9568    12.9960 H       
 217 H217          17.0078    -6.2688    11.2977 H       
 218 H218          16.1997    -8.5318    11.8354 H       
 219 H219          16.6057    -9.4857    14.0689 H       
 220 H220          15.0980   -11.3790    19.7684 H       
 221 H221          15.8901   -11.4177    21.3620 H       
 222 H222          17.7733   -10.0575    20.4051 H       
 223 H223          16.8816   -10.5314    17.6650 H       
 224 H224          14.1792    -9.3116    18.8874 H       
 225 H225          13.2280    -7.1022    19.4139 H       
 226 H226          13.7009    -6.0441    21.5864 H       
 227 H227          15.1243    -7.1958    23.2329 H       
 228 H228          16.0687    -9.4089    22.7097 H       
 229 H229          20.5209   -13.4522    21.2360 H       
 230 H230          20.6336   -14.9477    20.2773 H       
 231 H231          18.2849   -14.5542    19.4768 H       
 232 H232          17.8062   -12.5147    21.5113 H       
 233 H233          20.1866   -13.6553    18.2088 H       
 234 H234          20.0739   -12.1599    19.1675 H       
 235 H235          23.5588   -12.2252    18.0267 H       
 236 H236          16.7457   -18.4256    23.2912 H       
 237 H237          16.3017   -17.0651    22.2329 H       
 238 H238          18.3463   -16.6021    23.6175 H       
 239 H239          19.3132   -16.6245    20.8621 H       
 240 H240          16.3265   -19.1407    21.0510 H       
 241 H241          19.3846   -21.0690    25.6636 H       
 242 H242          21.0829   -21.5653    25.4693 H       
 243 H243          21.3446   -19.8035    23.6975 H       
 244 H244          20.7088   -22.2226    22.9742 H       
 245 H245          18.5853   -19.1667    24.4104 H       
 246 H246          19.0239   -18.7756    26.9943 H       
 247 H247          20.4467   -17.1452    28.3571 H       
 248 H248          22.9747   -19.7493    26.2385 H       
 249 H249          12.2542     8.8899    -3.9191 H       
 250 H250          11.1170    10.0462    -3.1855 H       
 251 H251           9.3830     8.2290    -3.1263 H       
 252 H252          10.9395     6.5216    -4.9123 H       
 253 H253          12.7556     8.0079     0.4078 H       
 254 H254          15.3219     9.2517     2.4257 H       
 255 H255          14.7836    10.6916    -0.6781 H       
 256 H256          15.7360    10.7509     0.7047 H       
 257 H257          10.8838     8.5642    -1.2112 H       
 258 H258          12.0210     7.4079    -1.9448 H       
 259 H259          12.6465    10.3081    -1.2273 H       
 260 H260          13.7837     9.1519    -1.9609 H       
 261 H261           7.2009    10.6907    -7.7180 H       
 262 H262           7.3464     9.2508    -6.6817 H       
 263 H263           9.5694    10.2630    -7.2701 H       
 264 H264           9.3427    10.6142    -4.3800 H       
 265 H265           5.7219    10.7892    -5.8449 H       
 266 H266          10.6314    14.3853    -8.7923 H       
 267 H267          10.5311    15.8209    -7.7448 H       
 268 H268          11.0902    14.2688    -7.0764 H       
 269 H269           8.7440    14.7280    -6.4180 H       
 270 H270           8.4617    12.5004    -8.2850 H       
 271 H271           7.7170    18.9720    -8.8980 H       
 272 H272           6.1727    18.9260    -9.7818 H       
 273 H273           6.1565    16.4267    -9.5267 H       
 274 H274           7.1900    17.4592   -11.6820 H       
 275 H275           8.5895    16.9137    -7.9869 H       
 276 H276           5.0883    17.8462    -7.8307 H       
 277 H277           6.6326    17.8921    -6.9469 H       
 278 H278           3.8742    19.2585    -5.7827 H       
 279 H279           5.4185    19.3044    -4.8988 H       
 280 H280           4.5080    20.8081    -5.1784 H       
@<TRIPOS>BOND
   1    1    6 1
   2    1    2 1
   3    1  145 1
   4    1  146 1
   5    2    4 1
   6    2    3 1
   7    2  147 1
   8    3    5 2
   9    3  118 am
  10    4   12 1
  11    4  148 1
  12    6    7 1
  13    6    8 1
  14    6  149 1
  15    7  150 1
  16    7  151 1
  17    7  152 1
  18    8  153 1
  19    8  154 1
  20    8  155 1
  21    9   14 1
  22    9   10 1
  23    9  156 1
  24    9  157 1
  25   10   12 1
  26   10   11 1
  27   10  158 1
  28   11   13 2
  29   11   18 am
  30   12  159 1
  31   14  160 1
  32   15   20 1
  33   15   16 1
  34   15  161 1
  35   15  162 1
  36   16   17 1
  37   16   18 1
  38   16  163 1
  39   17   19 2
  40   17   30 am
  41   18  164 1
  42   20   21 ar
  43   20   25 ar
  44   21   22 ar
  45   21  165 1
  46   22   23 ar
  47   22  166 1
  48   23   24 ar
  49   23   26 1
  50   24   25 ar
  51   24  167 1
  52   25  168 1
  53   26  169 1
  54   27   36 1
  55   27   28 1
  56   27  170 1
  57   27  171 1
  58   28   30 1
  59   28   29 1
  60   28  172 1
  61   29   31 2
  62   29   41 am
  63   30  173 1
  64   32   37 1
  65   32   33 1
  66   32  174 1
  67   33   34 2
  68   33   35 1
  69   34  175 1
  70   35  176 1
  71   35  177 1
  72   36   37 1
  73   36  178 1
  74   36  179 1
  75   37  180 1
  76   37  181 1
  77   38   43 1
  78   38   39 1
  79   38  182 1
  80   38  183 1
  81   39   40 1
  82   39   41 1
  83   39  184 1
  84   40   42 2
  85   40   48 am
  86   41  185 1
  87   43  186 1
  88   44   48 1
  89   44   45 1
  90   44  187 1
  91   44  188 1
  92   45   50 1
  93   45  189 1
  94   45  190 1
  95   46   48 1
  96   46   47 1
  97   46   50 1
  98   46  191 1
  99   47   49 2
 100   47   54 am
 101   50  192 1
 102   50  193 1
 103   51   56 1
 104   51   52 1
 105   51  194 1
 106   51  195 1
 107   52   53 1
 108   52   54 1
 109   52  196 1
 110   53   55 2
 111   53   60 am
 112   54  197 1
 113   56  198 1
 114   57   66 1
 115   57   58 1
 116   57  199 1
 117   57  200 1
 118   58   60 1
 119   58   59 1
 120   58  201 1
 121   59   61 2
 122   59   71 am
 123   60  202 1
 124   62   67 1
 125   62   63 1
 126   62  203 1
 127   63   64 2
 128   63   65 1
 129   64  204 1
 130   65  205 1
 131   65  206 1
 132   66   67 1
 133   66  207 1
 134   66  208 1
 135   67  209 1
 136   67  210 1
 137   68   73 1
 138   68   69 1
 139   68  211 1
 140   68  212 1
 141   69   70 1
 142   69   71 1
 143   69  213 1
 144   70   72 2
 145   70   82 am
 146   71  214 1
 147   73   74 ar
 148   73   78 ar
 149   74   75 ar
 150   74  215 1
 151   75   76 ar
 152   75  216 1
 153   76   77 ar
 154   76  217 1
 155   77   78 ar
 156   77  218 1
 157   78  219 1
 158   79   84 1
 159   79   80 1
 160   79  220 1
 161   79  221 1
 162   80   81 1
 163   80   82 1
 164   80  222 1
 165   81   83 2
 166   81   93 am
 167   82  223 1
 168   84   85 ar
 169   84   89 ar
 170   85   86 ar
 171   85  224 1
 172   86   87 ar
 173   86  225 1
 174   87   88 ar
 175   87  226 1
 176   88   89 ar
 177   88  227 1
 178   89  228 1
 179   90   95 1
 180   90   91 1
 181   90  229 1
 182   90  230 1
 183   91   93 1
 184   91   92 1
 185   91  231 1
 186   92   94 2
 187   92  102 am
 188   93  232 1
 189   95   96 1
 190   95  233 1
 191   95  234 1
 192   96   97 2
 193   96   98 1
 194   98  235 1
 195   99  104 1
 196   99  100 1
 197   99  236 1
 198   99  237 1
 199  100  102 1
 200  100  101 1
 201  100  238 1
 202  101  103 2
 203  101  108 am
 204  102  239 1
 205  104  240 1
 206  105  110 1
 207  105  106 1
 208  105  241 1
 209  105  242 1
 210  106  107 1
 211  106  108 1
 212  106  243 1
 213  107  109 2
 214  107  244 1
 215  108  245 1
 216  110  111 1
 217  110  114 2
 218  111  112 1
 219  111  246 1
 220  112  113 2
 221  112  247 1
 222  113  114 1
 223  114  248 1
 224  115  124 1
 225  115  116 1
 226  115  249 1
 227  115  250 1
 228  116  118 1
 229  116  117 1
 230  116  251 1
 231  117  119 2
 232  117  129 am
 233  118  252 1
 234  120  125 1
 235  120  121 1
 236  120  253 1
 237  121  122 2
 238  121  123 1
 239  122  254 1
 240  123  255 1
 241  123  256 1
 242  124  125 1
 243  124  257 1
 244  124  258 1
 245  125  259 1
 246  125  260 1
 247  126  131 1
 248  126  127 1
 249  126  261 1
 250  126  262 1
 251  127  129 1
 252  127  128 1
 253  127  263 1
 254  128  130 2
 255  128  135 am
 256  129  264 1
 257  131  265 1
 258  132  133 1
 259  132  266 1
 260  132  267 1
 261  132  268 1
 262  133  134 1
 263  133  135 1
 264  133  269 1
 265  134  136 2
 266  134  140 am
 267  135  270 1
 268  137  142 1
 269  137  138 1
 270  137  271 1
 271  137  272 1
 272  138  139 1
 273  138  140 1
 274  138  273 1
 275  139  141 2
 276  139  274 1
 277  140  275 1
 278  142  143 1
 279  142  276 1
 280  142  277 1
 281  143  144 1
 282  144  278 1
 283  144  279 1
 284  144  280 1

#	End of record

