#	Name: ASD00070018
#	Creating user name:	WinNT
#	Creation time:	15. 06. 2019 18:29

#	Modifying user name:	WinNT
#	Modification time:	15. 06. 2019 18:29

#	Program:	/corina/corina34_cracker 3.40 0067  02.08.2006

@<TRIPOS>MOLECULE
ASD00070018
  73   77    0    0    0
SMALL
NO_CHARGES


@<TRIPOS>ATOM
   1 C1            -0.0184     1.5028     0.0103 C.2     
   2 C2             0.0021    -0.0041     0.0020 C.3     
   3 O3             1.0236     2.1234     0.0037 O.2     
   4 N4            -1.1946     2.1607     0.0195 N.am    
   5 O5             2.0752    -0.1012    -1.2405 O.3     
   6 C6             1.4513    -0.4944    -0.0145 C.3     
   7 C7             1.4761    -2.0217     0.0947 C.3     
   8 O8             2.8256    -2.4796    -0.0337 O.3     
   9 C9             3.4495    -2.0864    -1.2597 C.3     
  10 C10            3.4246    -0.5591    -1.3689 C.3     
  11 C11           -1.2145     3.6256     0.0275 C.3     
  12 C12           -2.5315     4.1210    -0.5732 C.3     
  13 C13           -2.5522     5.6509    -0.5648 C.3     
  14 C14           -2.4266     6.1547     0.8744 C.3     
  15 C15           -1.1096     5.6592     1.4751 C.3     
  16 C16           -1.0888     4.1294     1.4667 C.3     
  17 C17           -2.4474     7.6846     0.8828 C.3     
  18 C18           -2.4475     8.1867     2.3281 C.3     
  19 N19           -2.4674     9.6555     2.3362 N.3     
  20 C20           -2.7062    10.1711     3.6902 C.3     
  21 C21           -2.8652    11.6923     3.6376 C.3     
  22 C22           -1.5944    12.3135     3.0515 C.3     
  23 C23           -1.3419    11.7238     1.6611 C.3     
  24 C24           -1.2270    10.2018     1.7711 C.3     
  25 O25           -0.1300    16.6738     4.2829 O.3     
  26 C26            0.9559    15.7746     4.5638 C.3     
  27 C27            0.2716    14.3876     4.5232 C.3     
  28 C28           -0.9151    14.6506     3.6164 C.ar    
  29 C29           -1.0650    16.0292     3.5322 C.ar    
  30 C30           -1.7681    13.8064     2.9414 C.ar    
  31 C31           -2.7847    14.3293     2.1614 C.ar    
  32 C32           -2.9392    15.6996     2.0636 C.ar    
  33 C33           -2.0875    16.5473     2.7417 C.ar    
  34 H34           -0.4983    -0.3791     0.8948 H       
  35 H35           -0.5153    -0.3696    -0.8850 H       
  36 H36           -2.0280     1.6644     0.0207 H       
  37 H37            1.9933    -0.0602     0.8257 H       
  38 H38            1.0795    -2.3242     1.0639 H       
  39 H39            0.8678    -2.4537    -0.6999 H       
  40 H40            4.4819    -2.4357    -1.2715 H       
  41 H41            2.9074    -2.5205    -2.0999 H       
  42 H42            3.8213    -0.2566    -2.3380 H       
  43 H43            4.0330    -0.1271    -0.5743 H       
  44 H44           -0.3805     4.0035    -0.5638 H       
  45 H45           -2.6210     3.7621    -1.5985 H       
  46 H46           -3.3655     3.7431     0.0182 H       
  47 H47           -1.7182     6.0288    -1.1561 H       
  48 H48           -3.4905     6.0039    -0.9927 H       
  49 H49           -3.2606     5.7768     1.4658 H       
  50 H50           -0.2756     6.0372     0.8838 H       
  51 H51           -1.0201     6.0182     2.5004 H       
  52 H52           -1.9228     3.7515     2.0581 H       
  53 H53           -0.1506     3.7764     1.8947 H       
  54 H54           -1.5649     8.0627     0.3669 H       
  55 H55           -3.3446     8.0386     0.3752 H       
  56 H56           -3.3300     7.8085     2.8441 H       
  57 H57           -1.5502     7.8327     2.8358 H       
  58 H58           -3.6149     9.7247     4.0939 H       
  59 H59           -1.8614     9.9163     4.3301 H       
  60 H60           -3.7183    11.9474     3.0089 H       
  61 H61           -3.0269    12.0764     4.6448 H       
  62 H62           -0.7475    12.0913     3.7007 H       
  63 H63           -2.1710    11.9795     1.0013 H       
  64 H64           -0.4152    12.1304     1.2562 H       
  65 H65           -0.3891     9.9467     2.4199 H       
  66 H66           -1.0614     9.7776     0.7807 H       
  67 H67            1.7262    15.8477     3.7961 H       
  68 H68            1.3736    15.9702     5.5513 H       
  69 H69            0.9345    13.6386     4.0899 H       
  70 H70           -0.0573    14.0862     5.5177 H       
  71 H71           -3.4548    13.6692     1.6307 H       
  72 H72           -3.7304    16.1088     1.4530 H       
  73 H73           -2.2153    17.6167     2.6601 H       
@<TRIPOS>BOND
   1    1    2 1
   2    1    3 2
   3    1    4 am
   4    2    6 1
   5    2   34 1
   6    2   35 1
   7    4   11 1
   8    4   36 1
   9    5    6 1
  10    5   10 1
  11    6    7 1
  12    6   37 1
  13    7    8 1
  14    7   38 1
  15    7   39 1
  16    8    9 1
  17    9   10 1
  18    9   40 1
  19    9   41 1
  20   10   42 1
  21   10   43 1
  22   11   12 1
  23   11   16 1
  24   11   44 1
  25   12   13 1
  26   12   45 1
  27   12   46 1
  28   13   14 1
  29   13   47 1
  30   13   48 1
  31   14   15 1
  32   14   17 1
  33   14   49 1
  34   15   16 1
  35   15   50 1
  36   15   51 1
  37   16   52 1
  38   16   53 1
  39   17   18 1
  40   17   54 1
  41   17   55 1
  42   18   19 1
  43   18   56 1
  44   18   57 1
  45   19   20 1
  46   19   24 1
  47   20   21 1
  48   20   58 1
  49   20   59 1
  50   21   22 1
  51   21   60 1
  52   21   61 1
  53   22   23 1
  54   22   30 1
  55   22   62 1
  56   23   24 1
  57   23   63 1
  58   23   64 1
  59   24   65 1
  60   24   66 1
  61   25   26 1
  62   25   29 1
  63   26   27 1
  64   26   67 1
  65   26   68 1
  66   27   28 1
  67   27   69 1
  68   27   70 1
  69   28   29 ar
  70   28   30 ar
  71   29   33 ar
  72   30   31 ar
  73   31   32 ar
  74   31   71 1
  75   32   33 ar
  76   32   72 1
  77   33   73 1

#	End of record

