#	Name: ASD04591116
#	Creating user name:	WinNT
#	Creation time:	15. 06. 2019 20:52

#	Modifying user name:	WinNT
#	Modification time:	15. 06. 2019 20:52

#	Program:	/corina/corina34_cracker 3.40 0067  02.08.2006

@<TRIPOS>MOLECULE
ASD04591116
  61   66    0    0    0
SMALL
NO_CHARGES


@<TRIPOS>ATOM
   1 N1            -0.0171     1.3233    -0.0119 N.ar    
   2 C2             0.0017    -0.0035    -0.0051 C.ar    
   3 N3             1.1297    -0.6949    -0.0122 N.ar    
   4 C4             2.3049    -0.0726    -0.0266 C.ar    
   5 C5             2.3189     1.3369    -0.0341 C.ar    
   6 C6             1.1070     2.0204    -0.0261 C.ar    
   7 N7             3.6028    -0.5182    -0.0366 N.pl3   
   8 C8             4.4811     0.5530    -0.0505 C.ar    
   9 C9             3.7311     1.7391    -0.0496 C.ar    
  10 C10            5.8732     0.6490    -0.0642 C.ar    
  11 N11            6.4600     1.8327    -0.0760 N.ar    
  12 C12            5.7733     2.9631    -0.0753 C.ar    
  13 C13            4.4064     2.9618    -0.0630 C.ar    
  14 N14           -1.2020    -0.6888     0.0103 N.pl3   
  15 C15           -2.4019     0.0119     0.1313 C.ar    
  16 C16            4.0029    -1.9275    -0.0326 C.3     
  17 C17            3.4631    -2.6251     1.2282 C.3     
  18 C18            2.5311    -3.7543     0.7421 C.3     
  19 C19            3.0236    -4.0616    -0.6939 C.3     
  20 C20            3.3802    -2.6570    -1.2408 C.3     
  21 N21           -2.3783     1.3196     0.3318 N.ar    
  22 C22           -3.4884     2.0230     0.4517 C.ar    
  23 C23           -4.7291     1.4088     0.3708 C.ar    
  24 C24           -4.7935     0.0322     0.1601 C.ar    
  25 C25           -3.6094    -0.6709     0.0340 C.ar    
  26 N26           -5.9022     2.1618     0.4995 N.3     
  27 C27           -5.5951     3.5827     0.7148 C.3     
  28 C28           -6.8997     4.3811     0.7706 C.3     
  29 N29           -7.7451     3.8581     1.8530 N.3     
  30 C30           -8.0522     2.4372     1.6377 C.3     
  31 C31           -6.7476     1.6388     1.5818 C.3     
  32 O32            6.6281    -0.4790    -0.0651 O.3     
  33 C33            8.0470    -0.3101    -0.0795 C.3     
  34 H34            1.0845     3.1002    -0.0319 H       
  35 H35            6.3023     3.9046    -0.0852 H       
  36 H36            3.8572     3.8916    -0.0629 H       
  37 H37           -1.2104    -1.6560    -0.0630 H       
  38 H38            5.0895    -2.0069    -0.0671 H       
  39 H39            4.2876    -3.0439     1.8052 H       
  40 H40            2.9034    -1.9151     1.8371 H       
  41 H41            2.6344    -4.6341     1.3773 H       
  42 H42            1.4958    -3.4139     0.7257 H       
  43 H43            3.9049    -4.7025    -0.6711 H       
  44 H44            2.2291    -4.5163    -1.2856 H       
  45 H45            2.4819    -2.1394    -1.5775 H       
  46 H46            4.1030    -2.7361    -2.0528 H       
  47 H47           -3.4300     3.0889     0.6151 H       
  48 H48           -5.7459    -0.4726     0.0932 H       
  49 H49           -3.6222    -1.7383    -0.1302 H       
  50 H50           -5.0565     3.6999     1.6551 H       
  51 H51           -4.9789     3.9499    -0.1059 H       
  52 H52           -6.6757     5.4310     0.9592 H       
  53 H53           -7.4252     4.2859    -0.1796 H       
  54 H54           -7.3111     4.0019     2.7524 H       
  55 H55           -8.6684     2.0699     2.4583 H       
  56 H56           -8.5908     2.3199     0.6973 H       
  57 H57           -6.9716     0.5888     1.3933 H       
  58 H58           -6.2221     1.7339     2.5320 H       
  59 H59            8.5293    -1.2876    -0.0786 H       
  60 H60            8.3386     0.2381    -0.9753 H       
  61 H61            8.3554     0.2480     0.8045 H       
@<TRIPOS>BOND
   1    1    2 ar
   2    1    6 ar
   3    2    3 ar
   4    2   14 1
   5    3    4 ar
   6    4    5 ar
   7    4    7 1
   8    5    6 ar
   9    5    9 1
  10    6   34 1
  11    7    8 1
  12    7   16 1
  13    8    9 ar
  14    8   10 ar
  15    9   13 ar
  16   10   11 ar
  17   10   32 1
  18   11   12 ar
  19   12   13 ar
  20   12   35 1
  21   13   36 1
  22   14   15 1
  23   14   37 1
  24   15   21 ar
  25   15   25 ar
  26   16   17 1
  27   16   20 1
  28   16   38 1
  29   17   18 1
  30   17   39 1
  31   17   40 1
  32   18   19 1
  33   18   41 1
  34   18   42 1
  35   19   20 1
  36   19   43 1
  37   19   44 1
  38   20   45 1
  39   20   46 1
  40   21   22 ar
  41   22   23 ar
  42   22   47 1
  43   23   24 ar
  44   23   26 1
  45   24   25 ar
  46   24   48 1
  47   25   49 1
  48   26   27 1
  49   26   31 1
  50   27   28 1
  51   27   50 1
  52   27   51 1
  53   28   29 1
  54   28   52 1
  55   28   53 1
  56   29   30 1
  57   29   54 1
  58   30   31 1
  59   30   55 1
  60   30   56 1
  61   31   57 1
  62   31   58 1
  63   32   33 1
  64   33   59 1
  65   33   60 1
  66   33   61 1

#	End of record

