#	Name: ASD05842030
#	Creating user name:	WinNT
#	Creation time:	15. 06. 2019 21:04

#	Modifying user name:	WinNT
#	Modification time:	15. 06. 2019 21:04

#	Program:	/corina/corina34_cracker 3.40 0067  02.08.2006

@<TRIPOS>MOLECULE
ASD05842030
  52   53    0    0    0
SMALL
NO_CHARGES


@<TRIPOS>ATOM
   1 C1             3.0934     1.6897     0.6256 C.ar    
   2 C2             3.9861     2.6499     1.0636 C.ar    
   3 C3             5.2511     2.2791     1.4796 C.ar    
   4 C4             5.6233     0.9480     1.4581 C.ar    
   5 C5             4.7303    -0.0124     1.0210 C.ar    
   6 C6             3.4637     0.3579     0.6091 C.ar    
   7 C7             1.7143     2.0939     0.1720 C.3     
   8 N8             1.7554     2.4657    -1.2486 N.3     
   9 C9             2.5744     3.6678    -1.4546 C.3     
  10 C10            1.8992     4.8659    -0.7842 C.3     
  11 C11            2.7393     6.0990    -0.9956 C.ar    
  12 C12            2.5298     6.8962    -2.1053 C.ar    
  13 C13            3.3005     8.0273    -2.2992 C.ar    
  14 C14            4.2803     8.3615    -1.3832 C.ar    
  15 C15            4.4891     7.5648    -0.2729 C.ar    
  16 C16            3.7156     6.4361    -0.0768 C.ar    
  17 C17            1.1559     0.3138    -2.2049 C.2     
  18 C18            2.2420     1.3499    -2.0709 C.3     
  19 O19            0.0521     0.5301    -1.7514 O.2     
  20 N20            1.4113    -0.8533    -2.8287 N.am    
  21 C21            0.3555    -1.8606    -2.9589 C.3     
  22 C22            0.9038    -3.0810    -3.7011 C.3     
  23 C23           -0.1988    -4.1330    -3.8372 C.3     
  24 C24            0.3494    -5.3534    -4.5794 C.3     
  25 H25            3.6953     3.6899     1.0804 H       
  26 H26            5.9488     3.0294     1.8211 H       
  27 H27            6.6119     0.6583     1.7825 H       
  28 H28            5.0211    -1.0524     1.0038 H       
  29 H29            2.7660    -0.3924     0.2676 H       
  30 H30            1.0273     1.2589     0.3093 H       
  31 H31            1.3733     2.9455     0.7607 H       
  32 H32            3.5608     3.5148    -1.0169 H       
  33 H33            2.6765     3.8591    -2.5228 H       
  34 H34            0.9127     5.0189    -1.2218 H       
  35 H35            1.7971     4.6746     0.2840 H       
  36 H36            1.7643     6.6351    -2.8210 H       
  37 H37            3.1373     8.6497    -3.1666 H       
  38 H38            4.8828     9.2448    -1.5351 H       
  39 H39            5.2549     7.8258     0.4426 H       
  40 H40            3.8787     5.8137     0.7906 H       
  41 H41            2.5157     1.7193    -3.0592 H       
  42 H42            3.1148     0.9021    -1.5959 H       
  43 H43            2.2942    -1.0264    -3.1914 H       
  44 H44            0.0154    -2.1607    -1.9678 H       
  45 H45           -0.4804    -1.4405    -3.5182 H       
  46 H46            1.2440    -2.7810    -4.6923 H       
  47 H47            1.7398    -3.5011    -3.1418 H       
  48 H48           -0.5390    -4.4331    -2.8460 H       
  49 H49           -1.0348    -3.7129    -4.3964 H       
  50 H50            0.6896    -5.0534    -5.5705 H       
  51 H51            1.1854    -5.7735    -4.0201 H       
  52 H52           -0.4361    -6.1029    -4.6763 H       
@<TRIPOS>BOND
   1    1    2 ar
   2    1    7 1
   3    1    6 ar
   4    2    3 ar
   5    2   25 1
   6    3    4 ar
   7    3   26 1
   8    4    5 ar
   9    4   27 1
  10    5    6 ar
  11    5   28 1
  12    6   29 1
  13    7    8 1
  14    7   30 1
  15    7   31 1
  16    8    9 1
  17    8   18 1
  18    9   10 1
  19    9   32 1
  20    9   33 1
  21   10   11 1
  22   10   34 1
  23   10   35 1
  24   11   12 ar
  25   11   16 ar
  26   12   13 ar
  27   12   36 1
  28   13   14 ar
  29   13   37 1
  30   14   15 ar
  31   14   38 1
  32   15   16 ar
  33   15   39 1
  34   16   40 1
  35   17   18 1
  36   17   19 2
  37   17   20 am
  38   18   41 1
  39   18   42 1
  40   20   21 1
  41   20   43 1
  42   21   22 1
  43   21   44 1
  44   21   45 1
  45   22   23 1
  46   22   46 1
  47   22   47 1
  48   23   24 1
  49   23   48 1
  50   23   49 1
  51   24   50 1
  52   24   51 1
  53   24   52 1

#	End of record

