#	Name: ASD03912008
#	Creating user name:	WinNT
#	Creation time:	15. 06. 2019 20:47

#	Modifying user name:	WinNT
#	Modification time:	15. 06. 2019 20:47

#	Program:	/corina/corina34_cracker 3.40 0067  02.08.2006

@<TRIPOS>MOLECULE
ASD03912008
  48   49    0    0    0
SMALL
NO_CHARGES


@<TRIPOS>ATOM
   1 C1            -0.6383    -0.4534     0.3422 C.ar    
   2 C2             0.2990     0.0972     1.1984 C.ar    
   3 C3             0.0164     1.2692     1.8759 C.ar    
   4 C4            -1.2023     1.8941     1.6995 C.ar    
   5 C5            -2.1456     1.3447     0.8404 C.ar    
   6 C6            -1.8579     0.1709     0.1573 C.ar    
   7 C7             1.0396     1.8649     2.8082 C.3     
   8 N8            -3.3813     1.9758     0.6603 N.am    
   9 C9            -3.4587     3.3213     0.6705 C.2     
  10 C10           -4.7669     4.0031     0.3624 C.3     
  11 O11           -2.4756     3.9833     0.9275 O.2     
  12 C12           -4.5851     5.4971     0.4397 C.ar    
  13 C13           -4.2148     6.2065    -0.6878 C.ar    
  14 C14           -4.0475     7.5761    -0.6196 C.ar    
  15 C15           -4.2514     8.2396     0.5816 C.ar    
  16 C16           -4.6228     7.5255     1.7115 C.ar    
  17 C17           -4.7943     6.1568     1.6367 C.ar    
  18 O18           -4.0870     9.5869     0.6515 O.3     
  19 C19           -4.1891    10.1867     1.9444 C.3     
  20 C20           -3.1248     9.5914     2.8684 C.3     
  21 Cl21          -0.2797    -1.9251    -0.5059 Cl      
  22 C22           -3.9736    11.6967     1.8245 C.3     
  23 C23           -5.0327    12.2908     0.8939 C.3     
  24 C24           -5.5575     9.9185     2.5160 C.2     
  25 O25           -6.3626     9.2792     1.8812 O.2     
  26 O26           -5.8818    10.3897     3.7302 O.3     
  27 H27            1.2529    -0.3895     1.3382 H       
  28 H28           -1.4221     2.8092     2.2293 H       
  29 H29           -2.5892    -0.2585    -0.5116 H       
  30 H30            1.6785     2.5530     2.2547 H       
  31 H31            0.5320     2.4041     3.6080 H       
  32 H32            1.6484     1.0685     3.2363 H       
  33 H33           -4.1823     1.4449     0.5282 H       
  34 H34           -5.0925     3.7281    -0.6408 H       
  35 H35           -5.5189     3.6906     1.0869 H       
  36 H36           -4.0559     5.6895    -1.6226 H       
  37 H37           -3.7579     8.1298    -1.5005 H       
  38 H38           -4.7821     8.0398     2.6478 H       
  39 H39           -5.0835     5.6004     2.5160 H       
  40 H40           -2.1361     9.9044     2.5328 H       
  41 H41           -3.2906     9.9421     3.8870 H       
  42 H42           -3.1894     8.5036     2.8435 H       
  43 H43           -4.0575    12.1551     2.8099 H       
  44 H44           -2.9815    11.8909     1.4168 H       
  45 H45           -4.8792    13.3665     0.8084 H       
  46 H46           -4.9488    11.8324    -0.0915 H       
  47 H47           -6.0248    12.0966     1.3016 H       
  48 H48           -6.7711    10.1921     4.0547 H       
@<TRIPOS>BOND
   1    1    2 ar
   2    1   21 1
   3    1    6 ar
   4    2    3 ar
   5    2   27 1
   6    3    4 ar
   7    3    7 1
   8    4    5 ar
   9    4   28 1
  10    5    6 ar
  11    5    8 1
  12    6   29 1
  13    7   30 1
  14    7   31 1
  15    7   32 1
  16    8    9 am
  17    8   33 1
  18    9   10 1
  19    9   11 2
  20   10   12 1
  21   10   34 1
  22   10   35 1
  23   12   13 ar
  24   12   17 ar
  25   13   14 ar
  26   13   36 1
  27   14   15 ar
  28   14   37 1
  29   15   16 ar
  30   15   18 1
  31   16   17 ar
  32   16   38 1
  33   17   39 1
  34   18   19 1
  35   19   20 1
  36   19   22 1
  37   19   24 1
  38   20   40 1
  39   20   41 1
  40   20   42 1
  41   22   23 1
  42   22   43 1
  43   22   44 1
  44   23   45 1
  45   23   46 1
  46   23   47 1
  47   24   25 2
  48   24   26 1
  49   26   48 1

#	End of record

