#	Name: ASD01813005
#	Creating user name:	WinNT
#	Creation time:	15. 06. 2019 19:29

#	Modifying user name:	WinNT
#	Modification time:	15. 06. 2019 19:29

#	Program:	/corina/corina34_cracker 3.40 0067  02.08.2006

@<TRIPOS>MOLECULE
ASD01813005
  45   48    0    0    0
SMALL
NO_CHARGES


@<TRIPOS>ATOM
   1 C1            -0.0866     1.3568    -0.1846 C.2     
   2 C2            -0.0456     0.0138    -0.1847 C.2     
   3 N3            -1.1839    -0.7206    -0.0074 N.pl3   
   4 C4            -2.3903    -0.1746     0.1866 C.2     
   5 C5            -2.5342     1.1985     0.2125 C.2     
   6 C6            -1.3309     2.0171     0.0159 C.2     
   7 O7            -1.3957     3.2361     0.0303 O.2     
   8 C8            -1.0785    -2.1816    -0.0313 C.3     
   9 C9            -0.9267    -2.6975     1.3765 C.ar    
  10 C10           -2.0472    -2.9050     2.1599 C.ar    
  11 C11           -1.9112    -3.3773     3.4506 C.ar    
  12 C12           -0.6480    -3.6441     3.9613 C.ar    
  13 C13            0.4750    -3.4351     3.1722 C.ar    
  14 C14            0.3323    -2.9676     1.8804 C.ar    
  15 C15            1.1284     2.2206    -0.3943 C.3     
  16 C16            2.4083     1.4204    -0.1631 C.3     
  17 C17            2.3185     0.1282    -0.9845 C.3     
  18 C18            1.2391    -0.7568    -0.3670 C.3     
  19 N19           -0.5068    -4.1231     5.2712 N.pl3   
  20 C20            0.6590    -4.4215     5.8881 C.2     
  21 C21            0.3656    -4.8500     7.1376 C.2     
  22 C22           -1.0247    -4.8127     7.2905 C.2     
  23 N23           -1.5479    -4.3716     6.1749 N.2     
  24 C24           -3.8503     1.8208     0.4262 C.2     
  25 O25           -4.8336     1.1241     0.5836 O.2     
  26 O26           -3.9654     3.1636     0.4473 O.3     
  27 H27           -3.2533    -0.8094     0.3229 H       
  28 H28           -1.9789    -2.6036    -0.4778 H       
  29 H29           -0.2095    -2.4736    -0.6209 H       
  30 H30           -3.0295    -2.6973     1.7621 H       
  31 H31           -2.7866    -3.5386     4.0622 H       
  32 H32            1.4590    -3.6414     3.5668 H       
  33 H33            1.2056    -2.8049     1.2660 H       
  34 H34            1.1243     2.6040    -1.4147 H       
  35 H35            1.0979     3.0580     0.3029 H       
  36 H36            3.2704     2.0033    -0.4873 H       
  37 H37            2.5045     1.1777     0.8952 H       
  38 H38            2.0542     0.3654    -2.0150 H       
  39 H39            3.2771    -0.3901    -0.9603 H       
  40 H40            1.5820    -1.1170     0.6030 H       
  41 H41            1.0564    -1.6092    -1.0213 H       
  42 H42            1.6467    -4.3341     5.4601 H       
  43 H43            1.0787    -5.1652     7.8850 H       
  44 H44           -1.5717    -5.0950     8.1779 H       
  45 H45           -4.8502     3.5261     0.5909 H       
@<TRIPOS>BOND
   1    1    2 2
   2    1   15 1
   3    1    6 1
   4    2    3 1
   5    2   18 1
   6    3    4 1
   7    3    8 1
   8    4    5 2
   9    4   27 1
  10    5    6 1
  11    5   24 1
  12    6    7 2
  13    8    9 1
  14    8   28 1
  15    8   29 1
  16    9   10 ar
  17    9   14 ar
  18   10   11 ar
  19   10   30 1
  20   11   12 ar
  21   11   31 1
  22   12   13 ar
  23   12   19 1
  24   13   14 ar
  25   13   32 1
  26   14   33 1
  27   15   16 1
  28   15   34 1
  29   15   35 1
  30   16   17 1
  31   16   36 1
  32   16   37 1
  33   17   18 1
  34   17   38 1
  35   17   39 1
  36   18   40 1
  37   18   41 1
  38   19   20 1
  39   19   23 1
  40   20   21 2
  41   20   42 1
  42   21   22 1
  43   21   43 1
  44   22   23 2
  45   22   44 1
  46   24   25 2
  47   24   26 1
  48   26   45 1

#	End of record

