#	Name: ASD03240683
#	Creating user name:	WinNT
#	Creation time:	15. 06. 2019 20:35

#	Modifying user name:	WinNT
#	Modification time:	15. 06. 2019 20:35

#	Program:	/corina/corina34_cracker 3.40 0067  02.08.2006

@<TRIPOS>MOLECULE
ASD03240683
  59   64    0    0    0
SMALL
NO_CHARGES


@<TRIPOS>ATOM
   1 C1            -0.2886     1.2238     0.0080 C.3     
   2 C2            -0.2461    -0.3070    -0.1323 C.3     
   3 C3             1.0917    -0.2605     0.6248 C.3     
   4 C4             1.2455     1.1788     0.1056 C.3     
   5 O5            -0.7684     1.8926    -1.1602 O.3     
   6 C6             2.1262    -1.2120     0.0813 C.ar    
   7 C7             3.0774    -1.7526     0.9281 C.ar    
   8 C8             4.0270    -2.6247     0.4367 C.ar    
   9 C9             4.0266    -2.9610    -0.9171 C.ar    
  10 C10            3.0649    -2.4127    -1.7658 C.ar    
  11 C11            2.1174    -1.5458    -1.2613 C.ar    
  12 C12            9.4418    -5.5286    -1.3456 C.2     
  13 N13            9.1816    -6.4077    -2.3295 N.2     
  14 C14            8.0012    -6.4967    -2.8861 C.2     
  15 C15            6.9306    -5.6149    -2.4256 C.ar    
  16 C16            7.2103    -4.6943    -1.3930 C.ar    
  17 N17            8.4874    -4.6728    -0.8663 N.pl3   
  18 C18            5.6480    -5.6629    -2.9811 C.ar    
  19 C19            4.6891    -4.7866    -2.4830 C.ar    
  20 C20            5.0432    -3.8960    -1.4511 C.ar    
  21 N21            6.2691    -3.8798    -0.9492 N.ar    
  22 N22            9.0734    -3.8977     0.1418 N.2     
  23 C23           10.3271    -4.2579     0.2770 C.2     
  24 C24           10.6051    -5.2695    -0.6336 C.2     
  25 C25            3.3118    -4.7898    -3.0319 C.ar    
  26 C26            3.1076    -4.7289    -4.4095 C.ar    
  27 C27            1.8234    -4.7328    -4.9148 C.ar    
  28 C28            0.7400    -4.7965    -4.0571 C.ar    
  29 C29            0.9366    -4.8566    -2.6891 C.ar    
  30 C30            2.2164    -4.8596    -2.1727 C.ar    
  31 C31           11.3078    -3.6670     1.2568 C.3     
  32 C32           -0.9604     1.6958     1.2717 C.2     
  33 C33           -2.1061     2.3278     1.2077 C.2     
  34 N34            0.9454    -0.3473     2.0839 N.3     
  35 H35           -1.0393    -0.8177     0.4137 H       
  36 H36           -0.1527    -0.6485    -1.1632 H       
  37 H37            1.7466     1.2435    -0.8602 H       
  38 H38            1.6564     1.8676     0.8437 H       
  39 H39           -0.7975     2.8557    -1.0780 H       
  40 H40            3.0769    -1.4911     1.9760 H       
  41 H41            4.7692    -3.0457     1.0986 H       
  42 H42            3.0598    -2.6690    -2.8150 H       
  43 H43            1.3698    -1.1238    -1.9166 H       
  44 H44            7.8203    -7.2119    -3.6749 H       
  45 H45            5.4095    -6.3581    -3.7725 H       
  46 H46           11.5552    -5.7665    -0.7632 H       
  47 H47            3.9527    -4.6785    -5.0801 H       
  48 H48            1.6639    -4.6857    -5.9819 H       
  49 H49           -0.2633    -4.7989    -4.4569 H       
  50 H50            0.0870    -4.9058    -2.0242 H       
  51 H51            2.3688    -4.9112    -1.1048 H       
  52 H52           11.2679    -4.2251     2.1923 H       
  53 H53           12.3144    -3.7239     0.8425 H       
  54 H54           11.0506    -2.6245     1.4444 H       
  55 H55           -0.4972     1.5131     2.2301 H       
  56 H56           -2.5692     2.5105     0.2493 H       
  57 H57           -2.5875     2.6660     2.1134 H       
  58 H58            1.8241    -0.5794     2.5222 H       
  59 H59            0.5682     0.5091     2.4611 H       
@<TRIPOS>BOND
   1    1    2 1
   2    1    4 1
   3    1    5 1
   4    1   32 1
   5    2    3 1
   6    2   35 1
   7    2   36 1
   8    3    4 1
   9    3    6 1
  10    3   34 1
  11    4   37 1
  12    4   38 1
  13    5   39 1
  14    6    7 ar
  15    6   11 ar
  16    7    8 ar
  17    7   40 1
  18    8    9 ar
  19    8   41 1
  20    9   10 ar
  21    9   20 1
  22   10   11 ar
  23   10   42 1
  24   11   43 1
  25   12   13 1
  26   12   17 1
  27   12   24 2
  28   13   14 2
  29   14   15 1
  30   14   44 1
  31   15   16 ar
  32   15   18 ar
  33   16   17 1
  34   16   21 ar
  35   17   22 1
  36   18   19 ar
  37   18   45 1
  38   19   20 ar
  39   19   25 1
  40   20   21 ar
  41   22   23 2
  42   23   24 1
  43   23   31 1
  44   24   46 1
  45   25   26 ar
  46   25   30 ar
  47   26   27 ar
  48   26   47 1
  49   27   28 ar
  50   27   48 1
  51   28   29 ar
  52   28   49 1
  53   29   30 ar
  54   29   50 1
  55   30   51 1
  56   31   52 1
  57   31   53 1
  58   31   54 1
  59   32   33 2
  60   32   55 1
  61   33   56 1
  62   33   57 1
  63   34   58 1
  64   34   59 1

#	End of record

