#	Name: ASD08178018
#	Creating user name:	WinNT
#	Creation time:	15. 06. 2019 21:18

#	Modifying user name:	WinNT
#	Modification time:	15. 06. 2019 21:18

#	Program:	/corina/corina34_cracker 3.40 0067  02.08.2006

@<TRIPOS>MOLECULE
ASD08178018
  77   80    0    0    0
SMALL
NO_CHARGES


@<TRIPOS>ATOM
   1 C1            -0.0167     1.3781     0.0096 C.ar    
   2 C2             0.0021    -0.0041     0.0020 C.ar    
   3 C3             1.2084    -0.6789    -0.0132 C.ar    
   4 C4             2.3960     0.0285    -0.0212 C.ar    
   5 C5             2.3773     1.4107    -0.0145 C.ar    
   6 C6             1.1709     2.0855     0.0021 C.ar    
   7 O7             2.8092     3.0516    -2.0395 O.2     
   8 C8             3.7292     3.0551    -1.2492 C.2     
   9 C9             3.6720     2.1819    -0.0223 C.3     
  10 N10            3.9369     4.7275    -3.5152 N.2     
  11 C11            4.8555     4.6458    -2.6005 C.2     
  12 N12            4.8027     3.8400    -1.4683 N.am    
  13 N13            4.1422     5.5108    -4.4838 N.2     
  14 C14            5.2602     6.1648    -4.4733 C.2     
  15 S15            6.1434     5.6945    -3.0206 S.3     
  16 C16            3.7521     3.0567     1.2304 C.3     
  17 O17            3.8162     2.2103     2.4085 O.3     
  18 C18            3.8909     2.8268     3.5985 C.2     
  19 C19            3.9605     2.0136     4.8653 C.3     
  20 O20            3.9023     4.0337     3.6539 O.2     
  21 C21            5.7232     7.1504    -5.5150 C.3     
  22 C22            5.2475     8.5543    -5.1360 C.3     
  23 S23            5.8048     9.7407    -6.3899 S.3     
  24 C24            5.1553    11.3191    -5.7756 C.3     
  25 C25            5.5468    12.4413    -6.7390 C.3     
  26 C26            5.0072    13.7526    -6.2286 C.2     
  27 N27            5.6173    14.5715    -5.4319 N.2     
  28 N28            4.9944    15.6240    -5.1185 N.2     
  29 C29            3.8071    15.7932    -5.6173 C.2     
  30 S30            3.4344    14.4515    -6.6150 S.3     
  31 N31            2.9779    16.8850    -5.3838 N.am    
  32 C32            3.3901    17.8844    -4.5791 C.2     
  33 O33            4.4842    17.8317    -4.0584 O.2     
  34 C34            2.4915    19.0675    -4.3261 C.3     
  35 C35            1.2073    18.5967    -3.6934 C.ar    
  36 C36            3.1934    20.0492    -3.3857 C.3     
  37 O37            2.3792    21.2421    -3.2358 O.3     
  38 C38            2.8566    22.2093    -2.4368 C.2     
  39 O39            3.9196    22.0640    -1.8811 O.2     
  40 C40            2.0668    23.4764    -2.2329 C.3     
  41 C41            0.0000    18.8273    -4.3260 C.ar    
  42 C42            1.2371    17.9293    -2.4832 C.ar    
  43 C43            0.0592    17.4975    -1.9029 C.ar    
  44 C44           -1.1486    17.7335    -2.5324 C.ar    
  45 C45           -1.1779    18.3956    -3.7456 C.ar    
  46 H46           -0.9592     1.9054     0.0170 H       
  47 H47           -0.9258    -0.5567     0.0083 H       
  48 H48            1.2231    -1.7588    -0.0184 H       
  49 H49            3.3386    -0.4987    -0.0324 H       
  50 H50            1.1563     3.1654     0.0069 H       
  51 H51            4.5100     1.4850    -0.0330 H       
  52 H52            5.5385     3.8428    -0.8362 H       
  53 H53            4.6450     3.6800     1.1818 H       
  54 H54            2.8682     3.6919     1.2871 H       
  55 H55            5.0031     1.8106     5.1100 H       
  56 H56            3.4978     2.5703     5.6803 H       
  57 H57            3.4309     1.0717     4.7220 H       
  58 H58            6.8118     7.1378    -5.5687 H       
  59 H59            5.3084     6.8757    -6.4849 H       
  60 H60            4.1589     8.5669    -5.0823 H       
  61 H61            5.6623     8.8289    -4.1661 H       
  62 H62            4.0690    11.2625    -5.7059 H       
  63 H63            5.5724    11.5246    -4.7897 H       
  64 H64            6.6331    12.4979    -6.8087 H       
  65 H65            5.1297    12.2358    -7.7249 H       
  66 H66            2.1028    16.9272    -5.8002 H       
  67 H67            2.2703    19.5643    -5.2708 H       
  68 H68            3.3350    19.5811    -2.4116 H       
  69 H69            4.1632    20.3213    -3.8024 H       
  70 H70            1.1433    23.4257    -2.8098 H       
  71 H71            1.8287    23.5899    -1.1753 H       
  72 H72            2.6570    24.3301    -2.5662 H       
  73 H73           -0.0229    19.3452    -5.2735 H       
  74 H74            2.1808    17.7450    -1.9913 H       
  75 H75            0.0825    16.9755    -0.9577 H       
  76 H76           -2.0689    17.3958    -2.0792 H       
  77 H77           -2.1216    18.5799    -4.2375 H       
@<TRIPOS>BOND
   1    1    2 ar
   2    1    6 ar
   3    1   46 1
   4    2    3 ar
   5    2   47 1
   6    3    4 ar
   7    3   48 1
   8    4    5 ar
   9    4   49 1
  10    5    6 ar
  11    5    9 1
  12    6   50 1
  13    7    8 2
  14    8    9 1
  15    8   12 am
  16    9   16 1
  17    9   51 1
  18   10   11 2
  19   10   13 1
  20   11   12 1
  21   11   15 1
  22   12   52 1
  23   13   14 2
  24   14   15 1
  25   14   21 1
  26   16   17 1
  27   16   53 1
  28   16   54 1
  29   17   18 1
  30   18   19 1
  31   18   20 2
  32   19   55 1
  33   19   56 1
  34   19   57 1
  35   21   22 1
  36   21   58 1
  37   21   59 1
  38   22   23 1
  39   22   60 1
  40   22   61 1
  41   23   24 1
  42   24   25 1
  43   24   62 1
  44   24   63 1
  45   25   26 1
  46   25   64 1
  47   25   65 1
  48   26   27 2
  49   26   30 1
  50   27   28 1
  51   28   29 2
  52   29   30 1
  53   29   31 1
  54   31   32 am
  55   31   66 1
  56   32   33 2
  57   32   34 1
  58   34   35 1
  59   34   36 1
  60   34   67 1
  61   35   41 ar
  62   35   42 ar
  63   36   37 1
  64   36   68 1
  65   36   69 1
  66   37   38 1
  67   38   39 2
  68   38   40 1
  69   40   70 1
  70   40   71 1
  71   40   72 1
  72   41   45 ar
  73   41   73 1
  74   42   43 ar
  75   42   74 1
  76   43   44 ar
  77   43   75 1
  78   44   45 ar
  79   44   76 1
  80   45   77 1

#	End of record

