#	Name: ASD01470042
#	Creating user name:	WinNT
#	Creation time:	15. 06. 2019 19:21

#	Modifying user name:	WinNT
#	Modification time:	15. 06. 2019 19:21

#	Program:	/corina/corina34_cracker 3.40 0067  02.08.2006

@<TRIPOS>MOLECULE
ASD01470042
  87   93    0    0    0
SMALL
NO_CHARGES


@<TRIPOS>ATOM
   1 N1            -1.6948     1.4189     0.5891 N.am    
   2 C2            -0.3631     0.9780     0.1831 C.3     
   3 C3             0.1856    -0.0683     1.1634 C.3     
   4 C4            -0.2793    -1.4733     0.8127 C.3     
   5 C5            -1.6522    -1.4598     0.1610 C.3     
   6 N6            -2.6156    -0.7364     0.9919 N.am    
   7 C7            -2.6509     0.6074     1.0122 C.2     
   8 O8            -3.6594     1.1252     1.4515 O.2     
   9 C9            -3.5574    -1.4909     1.8227 C.3     
  10 C10           -1.9896     2.8527     0.5299 C.3     
  11 C11           -1.7186     3.4772     1.8744 C.ar    
  12 C12           -2.9923    -1.6423     3.2115 C.ar    
  13 C13           -3.1332    -0.6273     4.1128 C.ar    
  14 C14           -2.6085    -0.7692     5.4024 C.ar    
  15 C15           -1.9410    -1.9576     5.7560 C.ar    
  16 C16           -1.8130    -2.9764     4.8149 C.ar    
  17 C17           -2.3378    -2.8164     3.5640 C.ar    
  18 C18           -0.4353     3.8768     2.2036 C.ar    
  19 C19           -0.1763     4.4519     3.4358 C.ar    
  20 C20           -1.1968     4.6303     4.3455 C.ar    
  21 C21           -2.4967     4.2290     4.0202 C.ar    
  22 C22           -2.7512     3.6541     2.7712 C.ar    
  23 C23           -2.5767     0.0862     6.5842 C.2     
  24 N24           -1.9475    -0.5582     7.5249 N.2     
  25 N25           -1.5419    -1.8132     7.0590 N.pl3   
  26 C26           -0.4400     0.3656    -1.2169 C.3     
  27 O27            1.6138    -0.0304     1.1314 O.3     
  28 C28            0.4154     1.1676    -2.1636 C.ar    
  29 C29            1.7166     0.7772    -2.4189 C.ar    
  30 C30            2.5012     1.5129    -3.2873 C.ar    
  31 C31            1.9844     2.6387    -3.9007 C.ar    
  32 C32            0.6828     3.0286    -3.6461 C.ar    
  33 C33           -0.1031     2.2904    -2.7811 C.ar    
  34 C34           -2.1332    -2.8995    -0.0308 C.3     
  35 O35           -0.3365    -2.2577     2.0059 O.3     
  36 C36           -1.2190    -3.6102    -0.9952 C.ar    
  37 C37           -0.0800    -4.2410    -0.5307 C.ar    
  38 C38            0.7586    -4.8929    -1.4154 C.ar    
  39 C39            0.4580    -4.9144    -2.7645 C.ar    
  40 C40           -0.6815    -4.2844    -3.2289 C.ar    
  41 C41           -1.5223    -3.6362    -2.3436 C.ar    
  42 C42           -4.5780     5.0917     7.1364 C.2     
  43 C43           -3.5917     4.4155     4.9856 C.2     
  44 C44           -3.3389     5.1441     6.2803 C.3     
  45 O45           -4.6974     3.9829     4.7392 O.2     
  46 C46           -4.8582     4.1381     8.0261 C.2     
  47 C47           -6.0576     4.3011     8.6976 C.2     
  48 C48           -6.7515     5.3870     8.3532 C.2     
  49 S49           -5.8723     6.2825     7.1208 S.3     
  50 H50            0.3082     1.8364     0.1613 H       
  51 H51           -0.1546     0.1764     2.1696 H       
  52 H52            0.4367    -1.9244     0.1257 H       
  53 H53           -1.5826    -0.9748    -0.8127 H       
  54 H54           -4.5063    -0.9568     1.8727 H       
  55 H55           -3.7178    -2.4767     1.3862 H       
  56 H56           -1.3571     3.3228    -0.2232 H       
  57 H57           -3.0373     2.9977     0.2664 H       
  58 H58           -3.6465     0.2806     3.8323 H       
  59 H59           -1.3027    -3.8921     5.0746 H       
  60 H60           -2.2365    -3.6092     2.8377 H       
  61 H61            0.3685     3.7391     1.4956 H       
  62 H62            0.8279     4.7612     3.6855 H       
  63 H63           -0.9931     5.0785     5.3067 H       
  64 H64           -3.7522     3.3418     2.5128 H       
  65 H65           -2.9994     1.0768     6.6644 H       
  66 H66           -1.0564    -2.4752     7.5756 H       
  67 H67           -0.0796    -0.6626    -1.1840 H       
  68 H68           -1.4737     0.3774    -1.5624 H       
  69 H69            2.0374    -0.6646     1.7258 H       
  70 H70            2.1204    -0.1024    -1.9396 H       
  71 H71            3.5181     1.2083    -3.4862 H       
  72 H72            2.5976     3.2139    -4.5786 H       
  73 H73            0.2791     3.9083    -4.1251 H       
  74 H74           -1.1200     2.5950    -2.5822 H       
  75 H75           -2.1224    -3.4170     0.9285 H       
  76 H76           -3.1477    -2.8936    -0.4291 H       
  77 H77            0.5113    -2.3397     2.4637 H       
  78 H78            0.1549    -4.2242     0.5233 H       
  79 H79            1.6488    -5.3852    -1.0526 H       
  80 H80            1.1135    -5.4232    -3.4558 H       
  81 H81           -0.9162    -4.3009    -4.2829 H       
  82 H82           -2.4126    -3.1440    -2.7064 H       
  83 H83           -3.0868     6.1833     6.0692 H       
  84 H84           -2.5119     4.6698     6.8086 H       
  85 H85           -4.1993     3.3021     8.2084 H       
  86 H86           -6.4054     3.6018     9.4435 H       
  87 H87           -7.7055     5.6744     8.7700 H       
@<TRIPOS>BOND
   1    1    2 1
   2    1   10 1
   3    1    7 am
   4    2    3 1
   5    2   26 1
   6    2   50 1
   7    3    4 1
   8    3   27 1
   9    3   51 1
  10    4    5 1
  11    4   35 1
  12    4   52 1
  13    5    6 1
  14    5   34 1
  15    5   53 1
  16    6    7 am
  17    6    9 1
  18    7    8 2
  19    9   12 1
  20    9   54 1
  21    9   55 1
  22   10   11 1
  23   10   56 1
  24   10   57 1
  25   11   18 ar
  26   11   22 ar
  27   12   13 ar
  28   12   17 ar
  29   13   14 ar
  30   13   58 1
  31   14   15 ar
  32   14   23 1
  33   15   16 ar
  34   15   25 1
  35   16   17 ar
  36   16   59 1
  37   17   60 1
  38   18   19 ar
  39   18   61 1
  40   19   20 ar
  41   19   62 1
  42   20   21 ar
  43   20   63 1
  44   21   22 ar
  45   21   43 1
  46   22   64 1
  47   23   24 2
  48   23   65 1
  49   24   25 1
  50   25   66 1
  51   26   28 1
  52   26   67 1
  53   26   68 1
  54   27   69 1
  55   28   29 ar
  56   28   33 ar
  57   29   30 ar
  58   29   70 1
  59   30   31 ar
  60   30   71 1
  61   31   32 ar
  62   31   72 1
  63   32   33 ar
  64   32   73 1
  65   33   74 1
  66   34   36 1
  67   34   75 1
  68   34   76 1
  69   35   77 1
  70   36   37 ar
  71   36   41 ar
  72   37   38 ar
  73   37   78 1
  74   38   39 ar
  75   38   79 1
  76   39   40 ar
  77   39   80 1
  78   40   41 ar
  79   40   81 1
  80   41   82 1
  81   42   46 2
  82   42   44 1
  83   42   49 1
  84   43   44 1
  85   43   45 2
  86   44   83 1
  87   44   84 1
  88   46   47 1
  89   46   85 1
  90   47   48 2
  91   47   86 1
  92   48   49 1
  93   48   87 1

#	End of record

