#	Name: ASD01410664
#	Creating user name:	WinNT
#	Creation time:	15. 06. 2019 19:18

#	Modifying user name:	WinNT
#	Modification time:	15. 06. 2019 19:18

#	Program:	/corina/corina34_cracker 3.40 0067  02.08.2006

@<TRIPOS>MOLECULE
ASD01410664
  63   66    0    0    0
SMALL
NO_CHARGES


@<TRIPOS>ATOM
   1 C1             1.1897     2.6891    -2.9149 C.ar    
   2 C2             1.7042     1.9885    -3.9969 C.ar    
   3 C3             2.8494     1.2347    -3.8309 C.ar    
   4 N4             3.4555     1.1743    -2.6607 N.ar    
   5 C5             2.9957     1.8278    -1.6062 C.ar    
   6 C6             1.8486     2.6054    -1.7005 C.ar    
   7 O7             3.6507     1.7375    -0.4217 O.3     
   8 C8             4.7089     0.8869    -0.3404 C.ar    
   9 C9             5.9561     1.2830    -0.8170 C.ar    
  10 C10            7.0376     0.4253    -0.7392 C.ar    
  11 C11            6.8862    -0.8374    -0.1847 C.ar    
  12 C12            5.6310    -1.2414     0.2977 C.ar    
  13 C13            4.5445    -0.3650     0.2198 C.ar    
  14 F14            6.1098     2.5112    -1.3584 F       
  15 N15            7.9757    -1.7017    -0.1072 N.am    
  16 C16            8.7261    -1.7415     1.0116 C.2     
  17 C17            8.3060    -2.5675    -1.2419 C.3     
  18 O18            9.7226    -2.4361     1.0506 O.2     
  19 C19            8.3364    -0.9390     2.1934 C.ar    
  20 N20            7.1896    -0.2698     2.1854 N.ar    
  21 C21            6.8060     0.4540     3.2136 C.ar    
  22 C22            7.5923     0.5456     4.3529 C.ar    
  23 C23            8.7981    -0.1379     4.4031 C.ar    
  24 C24            9.1734    -0.8973     3.3064 C.ar    
  25 Br25           7.0259     1.5923     5.8225 Br      
  26 C26            8.3213    -4.0268    -0.7824 C.3     
  27 C27            9.6849    -2.1900    -1.7871 C.3     
  28 C28            1.0203     2.0493    -5.3384 C.3     
  29 O29            9.6376    -0.8683    -2.3283 O.3     
  30 N30            1.5683     3.1636    -6.1158 N.pl3   
  31 C31           10.8815    -0.4160    -2.8670 C.3     
  32 N32            2.5775     3.0752    -6.9079 N.2     
  33 C33            2.7999     4.2552    -7.4408 C.2     
  34 C34            1.8286     5.1053    -6.9071 C.2     
  35 N35            1.1022     4.3621    -6.1032 N.2     
  36 C36            1.3285     3.3480    -0.4967 C.3     
  37 F37            0.1717     4.0523    -0.8473 F       
  38 F38            1.0287     2.4355     0.5205 F       
  39 F39            2.3023     4.2456    -0.0459 F       
  40 C40            5.4610    -2.5799     0.8874 C.2     
  41 O41            6.4267    -3.3000     1.0488 O.2     
  42 O42            4.2345    -3.0065     1.2482 O.3     
  43 H43            0.2980     3.2894    -3.0192 H       
  44 H44            3.2536     0.6873    -4.6696 H       
  45 H45            8.0020     0.7386    -1.1110 H       
  46 H46            3.5764    -0.6694     0.5893 H       
  47 H47            7.5586    -2.4410    -2.0251 H       
  48 H48            5.8664     0.9847     3.1707 H       
  49 H49            9.4283    -0.0828     5.2785 H       
  50 H50           10.1057    -1.4425     3.3111 H       
  51 H51            7.3107    -4.3334    -0.5127 H       
  52 H52            8.6890    -4.6585    -1.5910 H       
  53 H53            8.9751    -4.1282     0.0838 H       
  54 H54           10.4169    -2.2263    -0.9803 H       
  55 H55            9.9712    -2.8929    -2.5694 H       
  56 H56            1.1880     1.1152    -5.8744 H       
  57 H57           -0.0498     2.1985    -5.1942 H       
  58 H58           11.6384    -0.4154    -2.0826 H       
  59 H59           11.1926    -1.0821    -3.6717 H       
  60 H60           10.7622     0.5947    -3.2575 H       
  61 H61            3.5750     4.5149    -8.1467 H       
  62 H62            1.6985     6.1569    -7.1158 H       
  63 H63            4.1728    -3.8924     1.6310 H       
@<TRIPOS>BOND
   1    1    2 ar
   2    1    6 ar
   3    1   43 1
   4    2    3 ar
   5    2   28 1
   6    3    4 ar
   7    3   44 1
   8    4    5 ar
   9    5    6 ar
  10    5    7 1
  11    6   36 1
  12    7    8 1
  13    8    9 ar
  14    8   13 ar
  15    9   10 ar
  16    9   14 1
  17   10   11 ar
  18   10   45 1
  19   11   12 ar
  20   11   15 1
  21   12   13 ar
  22   12   40 1
  23   13   46 1
  24   15   16 am
  25   15   17 1
  26   16   18 2
  27   16   19 1
  28   17   26 1
  29   17   27 1
  30   17   47 1
  31   19   20 ar
  32   19   24 ar
  33   20   21 ar
  34   21   22 ar
  35   21   48 1
  36   22   23 ar
  37   22   25 1
  38   23   24 ar
  39   23   49 1
  40   24   50 1
  41   26   51 1
  42   26   52 1
  43   26   53 1
  44   27   29 1
  45   27   54 1
  46   27   55 1
  47   28   30 1
  48   28   56 1
  49   28   57 1
  50   29   31 1
  51   30   32 1
  52   30   35 1
  53   31   58 1
  54   31   59 1
  55   31   60 1
  56   32   33 2
  57   33   34 1
  58   33   61 1
  59   34   35 2
  60   34   62 1
  61   36   37 1
  62   36   38 1
  63   36   39 1
  64   40   41 2
  65   40   42 1
  66   42   63 1

#	End of record

