#	Name: ASD01230362
#	Creating user name:	WinNT
#	Creation time:	15. 06. 2019 19:14

#	Modifying user name:	WinNT
#	Modification time:	15. 06. 2019 19:14

#	Program:	/corina/corina34_cracker 3.40 0067  02.08.2006

@<TRIPOS>MOLECULE
ASD01230362
  41   43    0    0    0
SMALL
NO_CHARGES


@<TRIPOS>ATOM
   1 S1            -0.0204     1.6502     0.0111 S.o2    
   2 N2             0.0021    -0.0041     0.0020 N.am    
   3 C3             1.0256    -0.6894    -0.4563 C.2     
   4 N4             2.1713    -0.1507    -0.9688 N.pl3   
   5 C5             2.3936     1.2863    -1.1471 C.3     
   6 C6             1.7498     2.0759    -0.0035 C.3     
   7 C7             0.8928    -2.1077    -0.3981 C.2     
   8 C8             1.9093    -2.9032    -0.8069 C.2     
   9 C9             3.0927    -2.3153    -1.2868 C.2     
  10 C10            3.1981    -0.9765    -1.3566 C.2     
  11 S11           -0.5972    -2.8269     0.2079 S.o     
  12 O12           -0.2741    -4.2081     0.2925 O.2     
  13 C13           -0.6234    -2.3218     1.8957 C.ar    
  14 C14           -1.2351    -1.1346     2.2525 C.ar    
  15 C15           -1.2556    -0.7383     3.5767 C.ar    
  16 C16           -0.6646    -1.5294     4.5441 C.ar    
  17 C17           -0.0537    -2.7170     4.1874 C.ar    
  18 C18           -0.0370    -3.1154     2.8638 C.ar    
  19 C19           -0.6861    -1.0969     5.9876 C.3     
  20 C20           -1.4118    -2.1516     6.8253 C.3     
  21 C21            0.7490    -0.9417     6.4948 C.3     
  22 O22           -0.6348     2.0061    -1.2198 O.2     
  23 O23           -0.6111     1.9928     1.2573 O.2     
  24 H24            3.4652     1.4851    -1.1626 H       
  25 H25            1.9560     1.6031    -2.0938 H       
  26 H26            1.8733     3.1452    -0.1748 H       
  27 H27            2.2071     1.7954     0.9453 H       
  28 H28            1.8121    -3.9780    -0.7645 H       
  29 H29            3.9172    -2.9389    -1.5995 H       
  30 H30            4.1135    -0.5393    -1.7270 H       
  31 H31           -1.6968    -0.5166     1.4967 H       
  32 H32           -1.7329     0.1895     3.8554 H       
  33 H33            0.4083    -3.3349     4.9432 H       
  34 H34            0.4371    -4.0451     2.5857 H       
  35 H35           -1.2069    -0.1433     6.0734 H       
  36 H36           -0.8909    -3.1053     6.7394 H       
  37 H37           -1.4273    -1.8388     7.8693 H       
  38 H38           -2.4342    -2.2622     6.4639 H       
  39 H39            1.2699    -1.8953     6.4090 H       
  40 H40            1.2660    -0.1903     5.8980 H       
  41 H41            0.7335    -0.6288     7.5388 H       
@<TRIPOS>BOND
   1    1    2 am
   2    1    6 1
   3    1   22 2
   4    1   23 2
   5    2    3 2
   6    3    4 1
   7    3    7 1
   8    4    5 1
   9    4   10 1
  10    5    6 1
  11    5   24 1
  12    5   25 1
  13    6   26 1
  14    6   27 1
  15    7    8 2
  16    7   11 1
  17    8    9 1
  18    8   28 1
  19    9   10 2
  20    9   29 1
  21   10   30 1
  22   11   12 2
  23   11   13 1
  24   13   14 ar
  25   13   18 ar
  26   14   15 ar
  27   14   31 1
  28   15   16 ar
  29   15   32 1
  30   16   17 ar
  31   16   19 1
  32   17   18 ar
  33   17   33 1
  34   18   34 1
  35   19   20 1
  36   19   21 1
  37   19   35 1
  38   20   36 1
  39   20   37 1
  40   20   38 1
  41   21   39 1
  42   21   40 1
  43   21   41 1

#	End of record

