#	Name: ASD03330300
#	Creating user name:	WinNT
#	Creation time:	15. 06. 2019 20:37

#	Modifying user name:	WinNT
#	Modification time:	15. 06. 2019 20:37

#	Program:	/corina/corina34_cracker 3.40 0067  02.08.2006

@<TRIPOS>MOLECULE
ASD03330300
  65   69    0    0    0
SMALL
NO_CHARGES


@<TRIPOS>ATOM
   1 C1            -0.0218     1.5058     0.0981 C.2     
   2 C2            -0.0059     0.0031     0.2101 C.3     
   3 N3             1.0958     2.2773     0.1463 N.pl3   
   4 N4             1.3786    -0.4551    -0.0048 N.3     
   5 C5             2.3223     0.2955     0.8354 C.3     
   6 C6             2.4463     1.7348     0.3190 C.3     
   7 C7             0.7065     3.5721     0.0102 C.2     
   8 N8            -0.6015     3.6039    -0.1143 N.2     
   9 C9            -1.0791     2.3391    -0.0682 C.2     
  10 C10           -2.4933     1.9390    -0.1763 C.2     
  11 O11           -2.7988     0.7633    -0.1173 O.2     
  12 N12           -3.4480     2.8760    -0.3404 N.am    
  13 C13            1.6041     4.7483     0.0040 C.ar    
  14 C14            2.9716     4.5848    -0.2189 C.ar    
  15 C15            3.8033     5.6856    -0.2233 C.ar    
  16 C16            3.2840     6.9495    -0.0069 C.ar    
  17 C17            1.9289     7.1183     0.2152 C.ar    
  18 C18            1.0857     6.0262     0.2154 C.ar    
  19 C19           -4.8539     2.4782    -0.4478 C.3     
  20 C20           -5.1707     2.1113    -1.8990 C.3     
  21 C21           -4.9129     3.3215    -2.7989 C.3     
  22 O22           -5.6013     4.9053    -0.3656 O.3     
  23 N23           -6.4748     5.5662     0.1554 N.2     
  24 C24           -7.2438     4.8068     0.8769 C.2     
  25 N25           -6.7773     3.5494     0.7759 N.2     
  26 C26           -5.7341     3.6224    -0.0153 C.2     
  27 C27           -8.4388     5.2530     1.6793 C.3     
  28 C28           -4.2771     0.9497    -2.3381 C.3     
  29 C29           -6.6390     1.6959    -2.0111 C.3     
  30 C30            1.4975    -1.9001     0.2317 C.3     
  31 C31            2.8720    -2.3821    -0.2369 C.3     
  32 C32            3.2375    -3.8433     0.0316 C.3     
  33 C33            2.9130    -3.3850    -1.3916 C.3     
  34 H34           -0.3431    -0.2960     1.2025 H       
  35 H35           -0.6590    -0.4298    -0.5476 H       
  36 H36            1.9603     0.3094     1.8635 H       
  37 H37            3.2993    -0.1867     0.8028 H       
  38 H38            2.9692     1.7384    -0.6374 H       
  39 H39            2.9956     2.3386     1.0414 H       
  40 H40           -3.2044     3.8137    -0.3875 H       
  41 H41            3.3783     3.5985    -0.3872 H       
  42 H42            4.8621     5.5604    -0.3957 H       
  43 H43            3.9392     7.8080    -0.0110 H       
  44 H44            1.5296     8.1075     0.3838 H       
  45 H45            0.0272     6.1597     0.3837 H       
  46 H46           -5.0376     1.6161     0.1933 H       
  47 H47           -3.8669     3.6175    -2.7190 H       
  48 H48           -5.1386     3.0601    -3.8328 H       
  49 H49           -5.5496     4.1491    -2.4861 H       
  50 H50           -9.3333     5.2006     1.0587 H       
  51 H51           -8.5587     4.6018     2.5452 H       
  52 H52           -8.2887     6.2793     2.0145 H       
  53 H53           -4.4607     0.0875    -1.6969 H       
  54 H54           -4.5028     0.6883    -3.3719 H       
  55 H55           -3.2311     1.2456    -2.2582 H       
  56 H56           -7.2756     2.5235    -1.6983 H       
  57 H57           -6.8647     1.4345    -3.0450 H       
  58 H58           -6.8226     0.8337    -1.3700 H       
  59 H59            1.3844    -2.1046     1.2963 H       
  60 H60            0.7199    -2.4244    -0.3237 H       
  61 H61            3.6727    -1.6446    -0.1817 H       
  62 H62            4.2788    -4.0673     0.2631 H       
  63 H63            2.4988    -4.4612     0.5421 H       
  64 H64            1.9608    -3.7014    -1.8175 H       
  65 H65            3.7408    -3.3074    -2.0964 H       
@<TRIPOS>BOND
   1    1    2 1
   2    1    3 1
   3    1    9 2
   4    2    4 1
   5    2   34 1
   6    2   35 1
   7    3    6 1
   8    3    7 1
   9    4    5 1
  10    4   30 1
  11    5    6 1
  12    5   36 1
  13    5   37 1
  14    6   38 1
  15    6   39 1
  16    7    8 2
  17    7   13 1
  18    8    9 1
  19    9   10 1
  20   10   11 2
  21   10   12 am
  22   12   19 1
  23   12   40 1
  24   13   14 ar
  25   13   18 ar
  26   14   15 ar
  27   14   41 1
  28   15   16 ar
  29   15   42 1
  30   16   17 ar
  31   16   43 1
  32   17   18 ar
  33   17   44 1
  34   18   45 1
  35   19   20 1
  36   19   26 1
  37   19   46 1
  38   20   21 1
  39   20   28 1
  40   20   29 1
  41   21   47 1
  42   21   48 1
  43   21   49 1
  44   22   23 1
  45   22   26 1
  46   23   24 2
  47   24   25 1
  48   24   27 1
  49   25   26 2
  50   27   50 1
  51   27   51 1
  52   27   52 1
  53   28   53 1
  54   28   54 1
  55   28   55 1
  56   29   56 1
  57   29   57 1
  58   29   58 1
  59   30   31 1
  60   30   59 1
  61   30   60 1
  62   31   32 1
  63   31   33 1
  64   31   61 1
  65   32   33 1
  66   32   62 1
  67   32   63 1
  68   33   64 1
  69   33   65 1

#	End of record

