#	Name: ASD01190035
#	Creating user name:	WinNT
#	Creation time:	15. 06. 2019 19:07

#	Modifying user name:	WinNT
#	Modification time:	15. 06. 2019 19:07

#	Program:	/corina/corina34_cracker 3.40 0067  02.08.2006

@<TRIPOS>MOLECULE
ASD01190035
  57   60    0    0    0
SMALL
NO_CHARGES


@<TRIPOS>ATOM
   1 C1            -0.7302     3.4406    -0.2522 C.2     
   2 C2            -1.0377     2.0036    -0.1560 C.2     
   3 C3             0.0802     1.0506    -0.0785 C.2     
   4 C4             1.3338     1.4821    -0.0524 C.2     
   5 C5             1.6983     2.9367    -0.0775 C.3     
   6 C6             0.5284     3.8492    -0.2183 C.2     
   7 C7             2.4584     0.4647    -0.0074 C.3     
   8 C8             3.4452     0.7924    -1.1324 C.3     
   9 C9             3.9136     2.2428    -0.9979 C.3     
  10 C10            2.7179     3.1887    -1.1923 C.3     
  11 C11            4.9275     2.5604    -2.0817 C.3     
  12 C12            5.4202     4.0121    -1.8372 C.3     
  13 C13            4.2672     4.9383    -2.1733 C.3     
  14 C14            3.1462     4.6528    -1.1616 C.3     
  15 C15            6.2405     1.7722    -2.0180 C.3     
  16 C16            7.2291     2.6793    -2.8003 C.3     
  17 C17            6.6570     4.1168    -2.7237 C.3     
  18 C18            7.6665     5.0482    -2.1035 C.2     
  19 C19            7.5672     6.5330    -2.3408 C.3     
  20 O20           -2.1902     1.6135    -0.1405 O.2     
  21 O21            3.6099     4.9753     0.1511 O.3     
  22 O22            6.2943     4.5755    -4.0275 O.3     
  23 O23            8.5550     4.6046    -1.4164 O.2     
  24 O24            8.6292     7.1974    -1.6532 O.3     
  25 C25            1.8910    -0.9415    -0.2117 C.3     
  26 C26            2.3925     3.2672     1.2453 C.3     
  27 C27            5.8138     4.1860    -0.3690 C.3     
  28 H28           -1.5298     4.1594    -0.3546 H       
  29 H29           -0.1219    -0.0097    -0.0423 H       
  30 H30            0.7193     4.9092    -0.2980 H       
  31 H31            2.9666     0.5205     0.9553 H       
  32 H32            4.3050     0.1257    -1.0668 H       
  33 H33            2.9545     0.6574    -2.0963 H       
  34 H34            4.3642     2.3942    -0.0170 H       
  35 H35            2.2525     2.9853    -2.1567 H       
  36 H36            4.4684     2.4748    -3.0666 H       
  37 H37            4.5882     5.9766    -2.0887 H       
  38 H38            3.9138     4.7393    -3.1851 H       
  39 H39            2.2863     5.2798    -1.3974 H       
  40 H40            6.5660     1.6480    -0.9852 H       
  41 H41            6.1338     0.8049    -2.5089 H       
  42 H42            8.2154     2.6440    -2.3376 H       
  43 H43            7.2910     2.3562    -3.8395 H       
  44 H44            7.6430     6.7361    -3.4091 H       
  45 H45            6.6096     6.8972    -1.9688 H       
  46 H46            3.8695     5.9004     0.2603 H       
  47 H47            7.0409     4.6617    -4.6360 H       
  48 H48            8.6277     8.1583    -1.7617 H       
  49 H49            1.3938    -0.9954    -1.1802 H       
  50 H50            2.7021    -1.6689    -0.1786 H       
  51 H51            1.1729    -1.1618     0.5781 H       
  52 H52            3.4272     2.9265     1.2077 H       
  53 H53            2.3705     4.3447     1.4079 H       
  54 H54            1.8744     2.7657     2.0627 H       
  55 H55            6.7399     3.6451    -0.1746 H       
  56 H56            5.9595     5.2447    -0.1548 H       
  57 H57            5.0222     3.7919     0.2685 H       
@<TRIPOS>BOND
   1    1    2 1
   2    1    6 2
   3    1   28 1
   4    2    3 1
   5    2   20 2
   6    3    4 2
   7    3   29 1
   8    4    5 1
   9    4    7 1
  10    5    6 1
  11    5   26 1
  12    5   10 1
  13    6   30 1
  14    7    8 1
  15    7   25 1
  16    7   31 1
  17    8    9 1
  18    8   32 1
  19    8   33 1
  20    9   11 1
  21    9   10 1
  22    9   34 1
  23   10   14 1
  24   10   35 1
  25   11   12 1
  26   11   15 1
  27   11   36 1
  28   12   13 1
  29   12   17 1
  30   12   27 1
  31   13   14 1
  32   13   37 1
  33   13   38 1
  34   14   21 1
  35   14   39 1
  36   15   16 1
  37   15   40 1
  38   15   41 1
  39   16   17 1
  40   16   42 1
  41   16   43 1
  42   17   18 1
  43   17   22 1
  44   18   19 1
  45   18   23 2
  46   19   24 1
  47   19   44 1
  48   19   45 1
  49   21   46 1
  50   22   47 1
  51   24   48 1
  52   25   49 1
  53   25   50 1
  54   25   51 1
  55   26   52 1
  56   26   53 1
  57   26   54 1
  58   27   55 1
  59   27   56 1
  60   27   57 1

#	End of record

