#	Name: ASD01813679
#	Creating user name:	WinNT
#	Creation time:	15. 06. 2019 19:30

#	Modifying user name:	WinNT
#	Modification time:	15. 06. 2019 19:30

#	Program:	/corina/corina34_cracker 3.40 0067  02.08.2006

@<TRIPOS>MOLECULE
ASD01813679
  40   43    0    0    0
SMALL
NO_CHARGES


@<TRIPOS>ATOM
   1 C1             0.0981     1.4750     0.3522 C.ar    
   2 C2             0.0798     0.0887     0.3442 C.ar    
   3 C3             1.2499    -0.6315     0.2154 C.ar    
   4 C4             2.4679     0.0344     0.0909 C.ar    
   5 C5             2.4849     1.4396     0.0987 C.ar    
   6 C6             1.2927     2.1561     0.2303 C.ar    
   7 N7             3.6439    -0.6744    -0.0375 N.pl3   
   8 C8             4.8384    -0.0818    -0.1590 C.2     
   9 C9             4.9809     1.2911    -0.1642 C.2     
  10 C10            3.7792     2.1315    -0.0337 C.2     
  11 O11            3.8520     3.3479    -0.0333 O.2     
  12 C12            6.3099     1.9037    -0.2987 C.2     
  13 O13            6.4362     3.2459    -0.3024 O.3     
  14 O14            7.2954     1.2002    -0.4066 O.2     
  15 C15            3.5837    -2.1382    -0.0406 C.3     
  16 C16            3.4403    -2.6321    -1.4571 C.ar    
  17 C17            4.5541    -2.7797    -2.2622 C.ar    
  18 N18            4.4406    -3.2106    -3.5035 N.ar    
  19 C19            3.2710    -3.5176    -4.0277 C.ar    
  20 C20            2.1065    -3.3959    -3.2814 C.ar    
  21 C21            2.1909    -2.9488    -1.9658 C.ar    
  22 F22            1.2148    -1.9820     0.2103 F       
  23 F23            1.3087     3.5070     0.2374 F       
  24 N24            0.8643    -3.7235    -3.8430 N.pl3   
  25 N25           -0.3861    -3.5527    -3.2350 N.2     
  26 C26           -1.3059    -3.9726    -4.0660 C.2     
  27 C27           -0.6723    -4.4239    -5.2291 C.2     
  28 C28            0.6608    -4.2550    -5.0696 C.2     
  29 H29           -0.8266     2.0244     0.4498 H       
  30 H30           -0.8607    -0.4334     0.4403 H       
  31 H31            5.7197    -0.6985    -0.2558 H       
  32 H32            7.3305     3.6024    -0.3933 H       
  33 H33            4.4990    -2.5404     0.3935 H       
  34 H34            2.7272    -2.4679     0.5476 H       
  35 H35            5.5308    -2.5385    -1.8694 H       
  36 H36            3.2178    -3.8670    -5.0483 H       
  37 H37            1.3036    -2.8434    -1.3592 H       
  38 H38           -2.3706    -3.9714    -3.8850 H       
  39 H39           -1.1613    -4.8313    -6.1017 H       
  40 H40            1.4254    -4.5064    -5.7898 H       
@<TRIPOS>BOND
   1    1    2 ar
   2    1    6 ar
   3    1   29 1
   4    2    3 ar
   5    2   30 1
   6    3   22 1
   7    3    4 ar
   8    4    5 ar
   9    4    7 1
  10    5    6 ar
  11    5   10 1
  12    6   23 1
  13    7    8 1
  14    7   15 1
  15    8    9 2
  16    8   31 1
  17    9   10 1
  18    9   12 1
  19   10   11 2
  20   12   13 1
  21   12   14 2
  22   13   32 1
  23   15   16 1
  24   15   33 1
  25   15   34 1
  26   16   17 ar
  27   16   21 ar
  28   17   18 ar
  29   17   35 1
  30   18   19 ar
  31   19   20 ar
  32   19   36 1
  33   20   21 ar
  34   20   24 1
  35   21   37 1
  36   24   25 1
  37   24   28 1
  38   25   26 2
  39   26   27 1
  40   26   38 1
  41   27   28 2
  42   27   39 1
  43   28   40 1

#	End of record

