#	Name: ASD00060023
#	Creating user name:	WinNT
#	Creation time:	15. 06. 2019 18:29

#	Modifying user name:	WinNT
#	Modification time:	15. 06. 2019 18:29

#	Program:	/corina/corina34_cracker 3.40 0067  02.08.2006

@<TRIPOS>MOLECULE
ASD00060023
  22   24    0    0    0
SMALL
NO_CHARGES


@<TRIPOS>ATOM
   1 C1            -0.0167     1.3786     0.0096 C.ar    
   2 C2             0.0021    -0.0041     0.0020 C.ar    
   3 C3             1.2051    -0.6835    -0.0131 C.ar    
   4 C4             2.4021     0.0204    -0.0207 C.ar    
   5 C5             2.3814     1.4147    -0.0126 C.ar    
   6 C6             1.1692     2.0884     0.0021 C.ar    
   7 N7             3.6129    -0.6773    -0.0359 N.am    
   8 C8             4.7893    -0.0196    -0.0431 C.2     
   9 C9             4.7980     1.4453    -0.0354 C.2     
  10 N10            3.5809     2.1366    -0.0202 N.am    
  11 C11            5.7838     2.3652    -0.0395 C.2     
  12 N12            5.1989     3.6060    -0.0276 N.am    
  13 C13            3.8606     3.4527    -0.0159 C.2     
  14 O14            3.0417     4.3536    -0.0031 O.2     
  15 O15            5.8373    -0.6386    -0.0555 O.2     
  16 H16           -0.9598     1.9048     0.0169 H       
  17 H17           -0.9269    -0.5548     0.0083 H       
  18 H18            1.2144    -1.7634    -0.0186 H       
  19 H19            1.1519     3.1683     0.0080 H       
  20 H20            3.6066    -1.6472    -0.0410 H       
  21 H21            6.8444     2.1615    -0.0500 H       
  22 H22            5.6708     4.4535    -0.0269 H       
@<TRIPOS>BOND
   1    1    2 ar
   2    1    6 ar
   3    1   16 1
   4    2    3 ar
   5    2   17 1
   6    3    4 ar
   7    3   18 1
   8    4    5 ar
   9    4    7 1
  10    5    6 ar
  11    5   10 1
  12    6   19 1
  13    7    8 am
  14    7   20 1
  15    8    9 1
  16    8   15 2
  17    9   10 1
  18    9   11 2
  19   10   13 am
  20   11   12 1
  21   11   21 1
  22   12   13 am
  23   12   22 1
  24   13   14 2

#	End of record

