#	Name: ASD01918052
#	Creating user name:	WinNT
#	Creation time:	15. 06. 2019 20:10

#	Modifying user name:	WinNT
#	Modification time:	15. 06. 2019 20:10

#	Program:	/corina/corina34_cracker 3.40 0067  02.08.2006

@<TRIPOS>MOLECULE
ASD01918052
  46   49    0    0    0
SMALL
NO_CHARGES


@<TRIPOS>ATOM
   1 C1            -0.9134     0.8769     1.8285 C.ar    
   2 C2            -0.9725    -0.5092     1.8379 C.ar    
   3 C3             0.1425    -1.2446     2.1904 C.ar    
   4 C4             1.3168    -0.6004     2.5337 C.ar    
   5 C5             1.3782     0.7809     2.5256 C.ar    
   6 C6             0.2660     1.5208     2.1734 C.ar    
   7 O7            -2.0073     1.6024     1.4766 O.3     
   8 C8            -1.8737     3.0251     1.4895 C.3     
   9 C9            -3.1780     3.6558     1.0747 C.2     
  10 N10           -4.1478     3.9943     1.8796 N.2     
  11 C11           -5.1418     4.5226     1.1532 C.2     
  12 C12           -4.7561     4.5046    -0.1372 C.2     
  13 O13           -3.5302     3.9669    -0.1828 O.3     
  14 C14           -6.4673     5.0489     1.6421 C.3     
  15 C15           -7.0779     5.9408     0.5538 C.3     
  16 N16           -6.9499     5.2692    -0.7482 N.am    
  17 C17           -5.5950     5.0264    -1.2776 C.3     
  18 C18           -8.0422     4.8878    -1.4395 C.2     
  19 O19           -9.1484     5.0336    -0.9570 O.2     
  20 C20           -7.8951     4.2927    -2.7835 C.ar    
  21 C21           -5.0038     6.3366    -1.8018 C.3     
  22 C22           -8.6574     3.1796    -3.1442 C.ar    
  23 C23           -8.5163     2.6282    -4.3995 C.ar    
  24 C24           -7.6194     3.1767    -5.3035 C.ar    
  25 C25           -6.8597     4.2816    -4.9504 C.ar    
  26 C26           -6.9975     4.8447    -3.6999 C.ar    
  27 F27           -7.4849     2.6324    -6.5327 F       
  28 H28           -1.8896    -1.0128     1.5701 H       
  29 H29            0.0969    -2.3236     2.1982 H       
  30 H30            2.1874    -1.1771     2.8091 H       
  31 H31            2.2964     1.2818     2.7945 H       
  32 H32            0.3147     2.5997     2.1665 H       
  33 H33           -1.6134     3.3565     2.4947 H       
  34 H34           -1.0889     3.3227     0.7941 H       
  35 H35           -7.1376     4.2146     1.8491 H       
  36 H36           -6.3161     5.6324     2.5502 H       
  37 H37           -8.1317     6.1131     0.7728 H       
  38 H38           -6.5501     6.8940     0.5255 H       
  39 H39           -5.6321     4.2883    -2.0788 H       
  40 H40           -4.0577     6.1332    -2.3036 H       
  41 H41           -5.6987     6.7922    -2.5072 H       
  42 H42           -4.8337     7.0178    -0.9680 H       
  43 H43           -9.3561     2.7513    -2.4406 H       
  44 H44           -9.1050     1.7671    -4.6793 H       
  45 H45           -6.1623     4.7047    -5.6583 H       
  46 H46           -6.4091     5.7084    -3.4277 H       
@<TRIPOS>BOND
   1    1    2 ar
   2    1    6 ar
   3    1    7 1
   4    2    3 ar
   5    2   28 1
   6    3    4 ar
   7    3   29 1
   8    4    5 ar
   9    4   30 1
  10    5    6 ar
  11    5   31 1
  12    6   32 1
  13    7    8 1
  14    8    9 1
  15    8   33 1
  16    8   34 1
  17    9   10 2
  18    9   13 1
  19   10   11 1
  20   11   14 1
  21   11   12 2
  22   12   13 1
  23   12   17 1
  24   14   15 1
  25   14   35 1
  26   14   36 1
  27   15   16 1
  28   15   37 1
  29   15   38 1
  30   16   17 1
  31   16   18 am
  32   17   21 1
  33   17   39 1
  34   18   19 2
  35   18   20 1
  36   20   22 ar
  37   20   26 ar
  38   21   40 1
  39   21   41 1
  40   21   42 1
  41   22   23 ar
  42   22   43 1
  43   23   24 ar
  44   23   44 1
  45   24   25 ar
  46   24   27 1
  47   25   26 ar
  48   25   45 1
  49   26   46 1

#	End of record

