#	Name: ASD01881630
#	Creating user name:	WinNT
#	Creation time:	15. 06. 2019 19:43

#	Modifying user name:	WinNT
#	Modification time:	15. 06. 2019 19:43

#	Program:	/corina/corina34_cracker 3.40 0067  02.08.2006

@<TRIPOS>MOLECULE
ASD01881630
  52   56    0    0    0
SMALL
NO_CHARGES


@<TRIPOS>ATOM
   1 O1             1.8966     1.8885     0.0811 O.3     
   2 C2             2.4425     0.6921    -0.1639 C.2     
   3 N3             1.5586    -0.3150    -0.1751 N.am    
   4 C4             0.2175     0.2258     0.0945 C.3     
   5 C5             0.4596     1.7375     0.2688 C.3     
   6 O6             3.6312     0.5332    -0.3592 O.2     
   7 C7            -0.7156    -0.0361    -1.0894 C.3     
   8 C8            -0.3574    -0.3779     1.3775 C.3     
   9 C9             1.8761    -1.7246    -0.4165 C.3     
  10 C10            1.8895    -1.9896    -1.9000 C.ar    
  11 C11            3.0426    -1.7633    -2.6299 C.ar    
  12 C12            3.0608    -2.0041    -3.9886 C.ar    
  13 C13            1.9142    -2.4764    -4.6254 C.ar    
  14 C14            0.7551    -2.7027    -3.8847 C.ar    
  15 C15            0.7504    -2.4636    -2.5255 C.ar    
  16 C16            1.6732    -3.5650   -10.2254 C.2     
  17 N17            0.4036    -3.9852   -10.3588 N.am    
  18 C18           -0.2464    -3.9495    -9.0439 C.3     
  19 C19            0.7939    -3.4490    -8.0727 C.ar    
  20 C20            0.7779    -3.2097    -6.7209 C.ar    
  21 C21            1.9273    -2.7367    -6.0851 C.ar    
  22 C22            3.0882    -2.5087    -6.8248 C.ar    
  23 C23            3.1039    -2.7487    -8.1799 C.ar    
  24 C24            1.9544    -3.2223    -8.8190 C.ar    
  25 O25            2.4769    -3.4839   -11.1340 O.2     
  26 C26           -0.2278    -4.4083   -11.6112 C.3     
  27 C27           -0.2977    -3.3863   -12.7477 C.3     
  28 C28            0.6725    -4.5659   -12.8382 C.3     
  29 H29            0.1692     2.0582     1.2693 H       
  30 H30           -0.0860     2.3016    -0.4877 H       
  31 H31           -0.8876    -1.1081    -1.1863 H       
  32 H32           -1.6661     0.4706    -0.9219 H       
  33 H33           -0.2581     0.3426    -2.0033 H       
  34 H34            0.3393    -0.2147     2.1998 H       
  35 H35           -1.3100     0.0991     1.6084 H       
  36 H36           -0.5112    -1.4480     1.2384 H       
  37 H37            2.8561    -1.9532     0.0023 H       
  38 H38            1.1226    -2.3532     0.0580 H       
  39 H39            3.9302    -1.3970    -2.1355 H       
  40 H40            3.9615    -1.8267    -4.5575 H       
  41 H41           -0.1361    -3.0686    -4.3728 H       
  42 H42           -0.1456    -2.6431    -1.9499 H       
  43 H43           -1.0974    -3.2688    -9.0650 H       
  44 H44           -0.5731    -4.9500    -8.7602 H       
  45 H45           -0.1218    -3.3873    -6.1505 H       
  46 H46            3.9769    -2.1425    -6.3325 H       
  47 H47            4.0041    -2.5708    -8.7495 H       
  48 H48           -1.0620    -5.1020   -11.5062 H       
  49 H49           -1.1776    -3.4079   -13.3906 H       
  50 H50            0.1261    -2.3991   -12.5635 H       
  51 H51            1.7346    -4.3548   -12.7136 H       
  52 H52            0.4308    -5.3636   -13.5407 H       
@<TRIPOS>BOND
   1    1    2 1
   2    1    5 1
   3    2    3 am
   4    2    6 2
   5    3    4 1
   6    3    9 1
   7    4    5 1
   8    4    7 1
   9    4    8 1
  10    5   29 1
  11    5   30 1
  12    7   31 1
  13    7   32 1
  14    7   33 1
  15    8   34 1
  16    8   35 1
  17    8   36 1
  18    9   10 1
  19    9   37 1
  20    9   38 1
  21   10   11 ar
  22   10   15 ar
  23   11   12 ar
  24   11   39 1
  25   12   13 ar
  26   12   40 1
  27   13   14 ar
  28   13   21 1
  29   14   15 ar
  30   14   41 1
  31   15   42 1
  32   16   17 am
  33   16   24 1
  34   16   25 2
  35   17   18 1
  36   17   26 1
  37   18   19 1
  38   18   43 1
  39   18   44 1
  40   19   20 ar
  41   19   24 ar
  42   20   21 ar
  43   20   45 1
  44   21   22 ar
  45   22   23 ar
  46   22   46 1
  47   23   24 ar
  48   23   47 1
  49   26   27 1
  50   26   28 1
  51   26   48 1
  52   27   28 1
  53   27   49 1
  54   27   50 1
  55   28   51 1
  56   28   52 1

#	End of record

