#	Name: ASD09740672
#	Creating user name:	WinNT
#	Creation time:	15. 06. 2019 21:23

#	Modifying user name:	WinNT
#	Modification time:	15. 06. 2019 21:23

#	Program:	/corina/corina34_cracker 3.40 0067  02.08.2006

@<TRIPOS>MOLECULE
ASD09740672
  62   65    0    0    0
SMALL
NO_CHARGES


@<TRIPOS>ATOM
   1 C1            -0.1906     1.3913     0.0914 C.2     
   2 N2             0.0463     0.0654     0.1395 N.am    
   3 O3             0.7439     2.1803     0.1037 O.co2   
   4 O4            -1.3399     1.8054     0.0304 O.co2   
   5 C5            -1.0717    -0.8749     0.2507 C.3     
   6 C6            -1.7635    -0.7245     1.6222 C.3     
   7 C7            -2.8839     0.2924     1.3170 C.3     
   8 C8            -3.1788     0.1252    -0.1581 C.ar    
   9 C9            -4.2830     0.5321    -0.9135 C.ar    
  10 C10           -4.3289     0.2598    -2.2806 C.ar    
  11 C11           -3.2832    -0.4107    -2.8809 C.ar    
  12 C12           -2.1940    -0.8108    -2.1299 C.ar    
  13 C13           -2.1397    -0.5442    -0.7702 C.ar    
  14 S14           -6.8530     1.8240    -1.0771 S.3     
  15 C15           -5.3999     1.2494    -0.2640 C.2     
  16 N16           -5.4657     1.5560     1.0009 N.2     
  17 C17           -6.5341     2.1950     1.4074 C.2     
  18 C18           -7.4520     2.4629     0.4525 C.2     
  19 C19           -8.7350     3.1687     0.6554 C.ar    
  20 C20           -9.5923     3.3784    -0.4216 C.ar    
  21 C21          -10.8013     4.0443    -0.2241 C.ar    
  22 C22          -11.1449     4.4980     1.0580 C.ar    
  23 C23          -10.2832     4.2836     2.1236 C.ar    
  24 C24           -9.0902     3.6205     1.9295 C.ar    
  25 O25          -12.3202     5.1471     1.2557 O.3     
  26 C26          -12.5526     5.6857     2.5587 C.3     
  27 C27          -13.5379     6.8520     2.4602 C.3     
  28 C28          -13.1377     4.5988     3.4628 C.3     
  29 C29          -11.6887     4.2646    -1.3262 C.1     
  30 N30          -12.3927     4.4394    -2.2005 N.1     
  31 C31            1.4217    -0.4356     0.0805 C.3     
  32 C32            2.3832     0.7368    -0.1241 C.3     
  33 C33            1.7606    -1.1505     1.3901 C.3     
  34 C34            1.5577    -1.4163    -1.0859 C.3     
  35 H35           -0.7215    -1.8979     0.1138 H       
  36 H36           -2.1824    -1.6755     1.9513 H       
  37 H37           -1.0710    -0.3272     2.3642 H       
  38 H38           -3.7713     0.0663     1.9081 H       
  39 H39           -2.5404     1.3064     1.5216 H       
  40 H40           -5.1803     0.5722    -2.8671 H       
  41 H41           -3.3158    -0.6235    -3.9393 H       
  42 H42           -1.3789    -1.3356    -2.6058 H       
  43 H43           -6.6726     2.4881     2.4376 H       
  44 H44           -9.3216     3.0268    -1.4062 H       
  45 H45          -10.5498     4.6338     3.1099 H       
  46 H46           -8.4258     3.4529     2.7644 H       
  47 H47          -11.6112     6.0398     2.9788 H       
  48 H48          -14.4793     6.4979     2.0402 H       
  49 H49          -13.7152     7.2628     3.4541 H       
  50 H50          -13.1211     7.6263     1.8161 H       
  51 H51          -14.0791     4.2447     3.0428 H       
  52 H52          -12.4357     3.7679     3.5330 H       
  53 H53          -13.3150     5.0096     4.4568 H       
  54 H54            2.2863     1.4355     0.7069 H       
  55 H55            3.4065     0.3641    -0.1680 H       
  56 H56            2.1417     1.2461    -1.0571 H       
  57 H57            1.0756    -1.9857     1.5359 H       
  58 H58            2.7839    -1.5233     1.3462 H       
  59 H59            1.6637    -0.4518     2.2211 H       
  60 H60            1.3162    -0.9070    -2.0189 H       
  61 H61            2.5810    -1.7891    -1.1298 H       
  62 H62            0.8727    -2.2516    -0.9401 H       
@<TRIPOS>BOND
   1    1    2 am
   2    1    3 ar
   3    1    4 ar
   4    2   31 1
   5    2    5 1
   6    5    6 1
   7    5   13 1
   8    5   35 1
   9    6    7 1
  10    6   36 1
  11    6   37 1
  12    7    8 1
  13    7   38 1
  14    7   39 1
  15    8    9 ar
  16    8   13 ar
  17    9   10 ar
  18    9   15 1
  19   10   11 ar
  20   10   40 1
  21   11   12 ar
  22   11   41 1
  23   12   13 ar
  24   12   42 1
  25   14   15 1
  26   14   18 1
  27   15   16 2
  28   16   17 1
  29   17   18 2
  30   17   43 1
  31   18   19 1
  32   19   20 ar
  33   19   24 ar
  34   20   21 ar
  35   20   44 1
  36   21   22 ar
  37   21   29 1
  38   22   23 ar
  39   22   25 1
  40   23   24 ar
  41   23   45 1
  42   24   46 1
  43   25   26 1
  44   26   27 1
  45   26   28 1
  46   26   47 1
  47   27   48 1
  48   27   49 1
  49   27   50 1
  50   28   51 1
  51   28   52 1
  52   28   53 1
  53   29   30 3
  54   31   32 1
  55   31   34 1
  56   31   33 1
  57   32   54 1
  58   32   55 1
  59   32   56 1
  60   33   57 1
  61   33   58 1
  62   33   59 1
  63   34   60 1
  64   34   61 1
  65   34   62 1

#	End of record

