#	Name: ASD01410231
#	Creating user name:	WinNT
#	Creation time:	15. 06. 2019 19:17

#	Modifying user name:	WinNT
#	Modification time:	15. 06. 2019 19:17

#	Program:	/corina/corina34_cracker 3.40 0067  02.08.2006

@<TRIPOS>MOLECULE
ASD01410231
  44   46    0    0    0
SMALL
NO_CHARGES


@<TRIPOS>ATOM
   1 C1             0.6041     2.1762     0.6232 C.2     
   2 C2             0.7915     0.8404     0.5357 C.2     
   3 C3            -0.4696     0.2556     0.3463 C.2     
   4 C4            -1.3836     1.2907     0.3277 C.2     
   5 O5            -0.7041     2.4435     0.5029 O.3     
   6 C6            -3.5710     2.2763     0.1615 C.2     
   7 S7            -3.0800     3.9720     0.3545 S.3     
   8 C8            -4.7296     4.6056     0.2126 C.2     
   9 N9            -5.5220     3.5744     0.0376 N.2     
  10 C10           -5.0285     2.3554    -0.0023 C.2     
  11 C11           -2.7814     1.1649     0.1599 C.2     
  12 O12           -5.7277     1.3669    -0.1634 O.2     
  13 N13           -5.1058     5.9224     0.2740 N.pl3   
  14 C14           -6.5008     6.2978     0.0305 C.3     
  15 C15            1.6905     3.2001     0.8293 C.3     
  16 C16            2.2197     3.6628    -0.5296 C.3     
  17 C17           -6.6275     6.3159     2.5299 C.ar    
  18 C18           -7.2795     6.1990     1.3169 C.ar    
  19 C19           -8.6472     5.9917     1.2834 C.ar    
  20 C20           -9.3618     5.9014     2.4642 C.ar    
  21 C21           -8.7086     6.0186     3.6782 C.ar    
  22 C22           -7.3412     6.2258     3.7104 C.ar    
  23 C23           -5.8908     7.8064    -1.8406 C.2     
  24 O24           -5.5071     6.7952    -2.3792 O.2     
  25 O25           -5.7224     8.9936    -2.4440 O.3     
  26 C26           -6.5585     7.7348    -0.4915 C.3     
  27 Cl27          -9.6048     5.9060     5.1607 Cl      
  28 Cl28          -9.4661     5.8454    -0.2403 Cl      
  29 H29            1.7359     0.3203     0.5991 H       
  30 H30           -0.6835    -0.7973     0.2362 H       
  31 H31           -3.2240     0.1883     0.0304 H       
  32 H32           -4.4483     6.6056     0.4787 H       
  33 H33           -6.9343     5.6248    -0.7092 H       
  34 H34            1.2862     4.0546     1.3719 H       
  35 H35            2.5036     2.7564     1.4040 H       
  36 H36            2.6240     2.8083    -1.0722 H       
  37 H37            1.4067     4.1065    -1.1042 H       
  38 H38            3.0055     4.4033    -0.3805 H       
  39 H39           -5.5593     6.4733     2.5556 H       
  40 H40          -10.4294     5.7400     2.4385 H       
  41 H41           -6.8312     6.3169     4.6579 H       
  42 H42           -5.2889     8.9892    -3.3083 H       
  43 H43           -7.5990     8.0462    -0.5841 H       
  44 H44           -6.0421     8.3954     0.2050 H       
@<TRIPOS>BOND
   1    1    2 2
   2    1   15 1
   3    1    5 1
   4    2    3 1
   5    2   29 1
   6    3    4 2
   7    3   30 1
   8    4    5 1
   9    4   11 1
  10    6    7 1
  11    6   10 1
  12    6   11 2
  13    7    8 1
  14    8    9 2
  15    8   13 1
  16    9   10 1
  17   10   12 2
  18   11   31 1
  19   13   14 1
  20   13   32 1
  21   14   18 1
  22   14   26 1
  23   14   33 1
  24   15   16 1
  25   15   34 1
  26   15   35 1
  27   16   36 1
  28   16   37 1
  29   16   38 1
  30   17   18 ar
  31   17   22 ar
  32   17   39 1
  33   18   19 ar
  34   19   20 ar
  35   19   28 1
  36   20   21 ar
  37   20   40 1
  38   21   22 ar
  39   21   27 1
  40   22   41 1
  41   23   24 2
  42   23   25 1
  43   23   26 1
  44   25   42 1
  45   26   43 1
  46   26   44 1

#	End of record

