#	Name: ASD02500361
#	Creating user name:	WinNT
#	Creation time:	15. 06. 2019 20:22

#	Modifying user name:	WinNT
#	Modification time:	15. 06. 2019 20:22

#	Program:	/corina/corina34_cracker 3.40 0067  02.08.2006

@<TRIPOS>MOLECULE
ASD02500361
  55   58    0    0    0
SMALL
NO_CHARGES


@<TRIPOS>ATOM
   1 C1            -3.4011     1.9685     1.0053 C.ar    
   2 C2            -4.6025     2.6038     0.7263 C.ar    
   3 C3            -5.7276     2.3205     1.4863 C.ar    
   4 C4            -5.6501     1.4065     2.5195 C.ar    
   5 C5            -4.4511     0.7744     2.7965 C.ar    
   6 C6            -3.3275     1.0554     2.0390 C.ar    
   7 S7            -1.9718     2.3210     0.0370 S.o2    
   8 O8            -1.8862     3.7366    -0.0516 O.2     
   9 O9            -0.9262     1.5101     0.5551 O.2     
  10 N10           -2.2717     1.7737    -1.4969 N.am    
  11 O11           -4.6767     3.5031    -0.2902 O.3     
  12 C12           -5.9688     4.0313    -0.5961 C.3     
  13 C13           -2.4876     0.4186    -1.7217 C.ar    
  14 C14           -3.5393     0.0085    -2.5366 C.ar    
  15 C15           -3.7555    -1.3318    -2.7611 C.ar    
  16 C16           -2.9178    -2.2820    -2.1699 C.ar    
  17 C17           -1.8626    -1.8671    -1.3522 C.ar    
  18 C18           -1.6481    -0.5251    -1.1361 C.ar    
  19 C19           -3.1471    -3.7197    -2.4081 C.2     
  20 O20           -2.2119    -4.4475    -2.6808 O.2     
  21 N21           -4.3930    -4.2265    -2.3233 N.am    
  22 C22           -4.6332    -5.6694    -2.4769 C.3     
  23 C23           -5.4717    -6.1525    -1.2887 C.3     
  24 N24           -6.6835    -5.3291    -1.1818 N.3     
  25 C25           -6.3512    -3.9256    -0.9026 C.3     
  26 C26           -5.5480    -3.3521    -2.0689 C.3     
  27 C27           -7.5440    -5.8351    -0.2231 C.ar    
  28 N28           -8.6920    -5.2148     0.0075 N.ar    
  29 C29           -9.5373    -5.6731     0.9172 C.ar    
  30 C30           -9.2077    -6.8169     1.6317 C.ar    
  31 C31           -7.9998    -7.4391     1.3643 C.ar    
  32 N32           -7.2027    -6.9311     0.4380 N.ar    
  33 Cl33         -11.0390    -4.8540     1.2134 Cl      
  34 Cl34          -4.3558    -0.3729     4.0959 Cl      
  35 H35           -6.6637     2.8143     1.2708 H       
  36 H36           -6.5259     1.1856     3.1115 H       
  37 H37           -2.3924     0.5607     2.2565 H       
  38 H38           -2.2968     2.3984    -2.2385 H       
  39 H39           -6.3314     4.6167     0.2489 H       
  40 H40           -5.9014     4.6689    -1.4776 H       
  41 H41           -6.6594     3.2112    -0.7929 H       
  42 H42           -4.1863     0.7431    -2.9928 H       
  43 H43           -4.5717    -1.6493    -3.3930 H       
  44 H44           -1.2139    -2.5989    -0.8938 H       
  45 H45           -0.8302    -0.2037    -0.5083 H       
  46 H46           -5.1734    -5.8539    -3.4054 H       
  47 H47           -3.6809    -6.1995    -2.4925 H       
  48 H48           -5.7524    -7.1946    -1.4414 H       
  49 H49           -4.8890    -6.0629    -0.3720 H       
  50 H50           -7.2697    -3.3527    -0.7753 H       
  51 H51           -5.7562    -3.8671     0.0088 H       
  52 H52           -5.2002    -2.3508    -1.8149 H       
  53 H53           -6.1778    -3.3095    -2.9574 H       
  54 H54           -9.8785    -7.2126     2.3799 H       
  55 H55           -7.7134    -8.3306     1.9025 H       
@<TRIPOS>BOND
   1    1    2 ar
   2    1    6 ar
   3    1    7 1
   4    2    3 ar
   5    2   11 1
   6    3    4 ar
   7    3   35 1
   8    4    5 ar
   9    4   36 1
  10    5    6 ar
  11    5   34 1
  12    6   37 1
  13    7    8 2
  14    7    9 2
  15    7   10 am
  16   10   13 1
  17   10   38 1
  18   11   12 1
  19   12   39 1
  20   12   40 1
  21   12   41 1
  22   13   14 ar
  23   13   18 ar
  24   14   15 ar
  25   14   42 1
  26   15   16 ar
  27   15   43 1
  28   16   17 ar
  29   16   19 1
  30   17   18 ar
  31   17   44 1
  32   18   45 1
  33   19   20 2
  34   19   21 am
  35   21   22 1
  36   21   26 1
  37   22   23 1
  38   22   46 1
  39   22   47 1
  40   23   24 1
  41   23   48 1
  42   23   49 1
  43   24   25 1
  44   24   27 1
  45   25   26 1
  46   25   50 1
  47   25   51 1
  48   26   52 1
  49   26   53 1
  50   27   28 ar
  51   27   32 ar
  52   28   29 ar
  53   29   30 ar
  54   29   33 1
  55   30   31 ar
  56   30   54 1
  57   31   32 ar
  58   31   55 1

#	End of record

