#	Name: ASD01150130
#	Creating user name:	WinNT
#	Creation time:	15. 06. 2019 19:03

#	Modifying user name:	WinNT
#	Modification time:	15. 06. 2019 19:03

#	Program:	/corina/corina34_cracker 3.40 0067  02.08.2006

@<TRIPOS>MOLECULE
ASD01150130
  65   67    0    0    0
SMALL
NO_CHARGES


@<TRIPOS>ATOM
   1 N1            -0.0166     1.3763     0.0096 N.pl3   
   2 C2             0.0021    -0.0041     0.0020 C.2     
   3 C3            -1.3262    -0.4109     0.0125 C.2     
   4 N4            -2.0781     0.6927     0.0256 N.2     
   5 C5            -1.3102     1.7524     0.0299 C.2     
   6 C6             1.0206    -0.9813    -0.0125 C.2     
   7 N7             0.6807    -2.2871    -0.0159 N.am    
   8 C8            -0.6087    -2.6667    -0.0061 C.2     
   9 N9            -1.6103    -1.7670     0.0083 N.am    
  10 O10            2.1925    -0.6496    -0.0223 O.2     
  11 C11           -3.0026    -2.2226     0.0187 C.3     
  12 O12           -0.8774    -3.8526    -0.0100 O.2     
  13 C13            1.7328    -3.3064    -0.0310 C.3     
  14 C14            2.1070    -3.6631     1.3845 C.ar    
  15 C15            1.4454    -4.6866     2.0371 C.ar    
  16 C16            1.7881    -5.0142     3.3353 C.ar    
  17 C17            2.7936    -4.3176     3.9819 C.ar    
  18 C18            3.4553    -3.2933     3.3283 C.ar    
  19 C19            3.1155    -2.9704     2.0281 C.ar    
  20 Cl20           3.2242    -4.7281     5.6127 Cl      
  21 C21           -1.7991     3.1779     0.0446 C.3     
  22 C22           -1.9566     3.6481     1.4920 C.3     
  23 C23            1.1490     2.2638     0.0032 C.3     
  24 C24           -3.4739    -2.3894     1.4647 C.3     
  25 O25           -3.4883    -1.1150     2.1110 O.3     
  26 Si26          -3.9765    -1.1655     3.6664 Si      
  27 C27           -5.7091    -1.8449     3.7517 C.3     
  28 C28           -2.8302    -2.2636     4.6417 C.3     
  29 C29           -3.9478     0.5541     4.3825 C.3     
  30 C30           -4.8891     1.4559     3.5815 C.3     
  31 C31           -4.4057     0.5067     5.8416 C.3     
  32 C32           -2.5248     1.1120     4.3124 C.3     
  33 H33           -3.6294    -1.4868    -0.4852 H       
  34 H34           -3.0759    -3.1785    -0.4999 H       
  35 H35            1.3696    -4.1958    -0.5459 H       
  36 H36            2.6081    -2.9174    -0.5512 H       
  37 H37            0.6603    -5.2301     1.5324 H       
  38 H38            1.2710    -5.8136     3.8452 H       
  39 H39            4.2402    -2.7492     3.8325 H       
  40 H40            3.6320    -2.1709     1.5178 H       
  41 H41           -1.0779     3.8146    -0.4679 H       
  42 H42           -2.7616     3.2371    -0.4635 H       
  43 H43           -2.3101     4.6791     1.5026 H       
  44 H44           -2.6777     3.0114     2.0044 H       
  45 H45           -0.9941     3.5888     2.0001 H       
  46 H46            1.4282     2.4894    -1.0259 H       
  47 H47            0.9039     3.1892     0.5244 H       
  48 H48            1.9820     1.7730     0.5065 H       
  49 H49           -4.4784    -2.8124     1.4729 H       
  50 H50           -2.7940    -3.0574     1.9936 H       
  51 H51           -5.7259    -2.8510     3.3328 H       
  52 H52           -6.0354    -1.8786     4.7912 H       
  53 H53           -6.3798    -1.2024     3.1811 H       
  54 H54           -1.8165    -1.8661     4.5918 H       
  55 H55           -3.1565    -2.2973     5.6812 H       
  56 H56           -2.8470    -3.2697     4.2228 H       
  57 H57           -5.9029     1.0584     3.6314 H       
  58 H58           -4.8723     2.4620     4.0004 H       
  59 H59           -4.5629     1.4896     2.5420 H       
  60 H60           -3.7351    -0.1357     6.4122 H       
  61 H61           -4.3889     1.5129     6.2605 H       
  62 H62           -5.4194     0.1093     5.8915 H       
  63 H63           -2.1986     1.1458     3.2729 H       
  64 H64           -2.5080     2.1182     4.7313 H       
  65 H65           -1.8542     0.4696     4.8830 H       
@<TRIPOS>BOND
   1    1    2 1
   2    1   23 1
   3    1    5 1
   4    2    3 2
   5    2    6 1
   6    3    4 1
   7    3    9 1
   8    4    5 2
   9    5   21 1
  10    6    7 am
  11    6   10 2
  12    7    8 am
  13    7   13 1
  14    8    9 am
  15    8   12 2
  16    9   11 1
  17   11   24 1
  18   11   33 1
  19   11   34 1
  20   13   14 1
  21   13   35 1
  22   13   36 1
  23   14   15 ar
  24   14   19 ar
  25   15   16 ar
  26   15   37 1
  27   16   17 ar
  28   16   38 1
  29   17   18 ar
  30   17   20 1
  31   18   19 ar
  32   18   39 1
  33   19   40 1
  34   21   22 1
  35   21   41 1
  36   21   42 1
  37   22   43 1
  38   22   44 1
  39   22   45 1
  40   23   46 1
  41   23   47 1
  42   23   48 1
  43   24   25 1
  44   24   49 1
  45   24   50 1
  46   25   26 1
  47   26   27 1
  48   26   28 1
  49   26   29 1
  50   27   51 1
  51   27   52 1
  52   27   53 1
  53   28   54 1
  54   28   55 1
  55   28   56 1
  56   29   30 1
  57   29   31 1
  58   29   32 1
  59   30   57 1
  60   30   58 1
  61   30   59 1
  62   31   60 1
  63   31   61 1
  64   31   62 1
  65   32   63 1
  66   32   64 1
  67   32   65 1

#	End of record

