#	Name: ASD03331753
#	Creating user name:	WinNT
#	Creation time:	15. 06. 2019 20:39

#	Modifying user name:	WinNT
#	Modification time:	15. 06. 2019 20:39

#	Program:	/corina/corina34_cracker 3.40 0067  02.08.2006

@<TRIPOS>MOLECULE
ASD03331753
  51   54    0    0    0
SMALL
NO_CHARGES


@<TRIPOS>ATOM
   1 C1             0.0276     1.3856     0.2134 C.ar    
   2 C2             0.0390     0.0035     0.2209 C.ar    
   3 C3             1.2185    -0.6865    -0.0294 C.ar    
   4 C4             2.3885     0.0118    -0.2876 C.ar    
   5 C5             2.3761     1.4041    -0.2950 C.ar    
   6 C6             1.1878     2.0882    -0.0428 C.ar    
   7 C7             3.6241     2.1575    -0.5700 C.ar    
   8 C8             3.6020     3.5491    -0.5753 C.ar    
   9 C9             4.7735     4.2437    -0.8329 C.ar    
  10 C10            5.9307     3.5239    -1.0772 C.ar    
  11 C11            5.8847     2.1331    -1.0572 C.ar    
  12 N12            4.7522     1.4980    -0.8033 N.ar    
  13 N13            7.0423     1.4035    -1.3016 N.3     
  14 C14            6.7776    -0.0455    -1.2341 C.3     
  15 C15            7.2125    -0.6530    -2.5843 C.3     
  16 C16            8.2229     0.3911    -3.1281 C.3     
  17 C17            7.5960     1.7192    -2.6355 C.3     
  18 N18            1.2262    -2.0860    -0.0205 N.am    
  19 C19            2.2991    -2.7510     0.4518 C.2     
  20 N20            2.2710    -4.0952     0.5458 N.am    
  21 O21            3.2924    -2.1383     0.7931 O.2     
  22 C22            3.4183    -4.7938     0.9448 C.ar    
  23 C23            4.8300    -6.7261     0.7886 C.ar    
  24 C24            5.6853    -6.1747     1.7340 C.ar    
  25 C25            5.4008    -4.9327     2.2871 C.ar    
  26 C26            4.2705    -4.2447     1.8939 C.ar    
  27 C27            3.7000    -6.0376     0.3953 C.ar    
  28 S28            7.1277    -7.0533     2.2362 S.3     
  29 C29            7.8098    -5.8796     3.4334 C.1     
  30 N30            8.2378    -5.1430     4.1848 N.1     
  31 H31           -0.8929     1.9175     0.4041 H       
  32 H32           -0.8714    -0.5415     0.4222 H       
  33 H33            3.3066    -0.5227    -0.4821 H       
  34 H34            1.1750     3.1681    -0.0482 H       
  35 H35            2.6827     4.0816    -0.3813 H       
  36 H36            4.7834     5.3236    -0.8431 H       
  37 H37            6.8592     4.0363    -1.2814 H       
  38 H38            7.3553    -0.4906    -0.4239 H       
  39 H39            5.7139    -0.2211    -1.0739 H       
  40 H40            7.6980    -1.6174    -2.4345 H       
  41 H41            6.3595    -0.7500    -3.2559 H       
  42 H42            9.2113     0.2411    -2.6937 H       
  43 H43            8.2679     0.3607    -4.2168 H       
  44 H44            6.8015     2.0372    -3.3106 H       
  45 H45            8.3597     2.4928    -2.5560 H       
  46 H46            0.4593    -2.5773    -0.3542 H       
  47 H47            1.4566    -4.5791     0.3373 H       
  48 H48            5.0512    -7.6916     0.3581 H       
  49 H49            6.0656    -4.5037     3.0223 H       
  50 H50            4.0490    -3.2792     2.3242 H       
  51 H51            3.0348    -6.4665    -0.3395 H       
@<TRIPOS>BOND
   1    1    2 ar
   2    1    6 ar
   3    1   31 1
   4    2    3 ar
   5    2   32 1
   6    3    4 ar
   7    3   18 1
   8    4    5 ar
   9    4   33 1
  10    5    6 ar
  11    5    7 1
  12    6   34 1
  13    7    8 ar
  14    7   12 ar
  15    8    9 ar
  16    8   35 1
  17    9   10 ar
  18    9   36 1
  19   10   11 ar
  20   10   37 1
  21   11   12 ar
  22   11   13 1
  23   13   14 1
  24   13   17 1
  25   14   15 1
  26   14   38 1
  27   14   39 1
  28   15   16 1
  29   15   40 1
  30   15   41 1
  31   16   17 1
  32   16   42 1
  33   16   43 1
  34   17   44 1
  35   17   45 1
  36   18   19 am
  37   18   46 1
  38   19   20 am
  39   19   21 2
  40   20   22 1
  41   20   47 1
  42   22   27 ar
  43   22   26 ar
  44   23   24 ar
  45   23   27 ar
  46   23   48 1
  47   24   25 ar
  48   24   28 1
  49   25   26 ar
  50   25   49 1
  51   26   50 1
  52   27   51 1
  53   28   29 1
  54   29   30 3

#	End of record

