#	Name: ASD03090361
#	Creating user name:	WinNT
#	Creation time:	15. 06. 2019 20:28

#	Modifying user name:	WinNT
#	Modification time:	15. 06. 2019 20:28

#	Program:	/corina/corina34_cracker 3.40 0067  02.08.2006

@<TRIPOS>MOLECULE
ASD03090361
  35   37    0    0    0
SMALL
NO_CHARGES


@<TRIPOS>ATOM
   1 C1            -0.0168     1.3889     0.0097 C.ar    
   2 C2             0.0021    -0.0041     0.0020 C.ar    
   3 C3             1.2225    -0.6606    -0.0132 C.ar    
   4 C4             2.3820     0.0991    -0.0202 C.ar    
   5 C5             2.2883     1.4815    -0.0119 C.ar    
   6 N6             1.1168     2.0790     0.0026 N.ar    
   7 C7            -1.3134     2.1059     0.0197 C.2     
   8 O8            -2.3544     1.4791     0.0212 O.2     
   9 N9            -1.3382     3.4534     0.0271 N.am    
  10 C10            3.7312    -0.5720    -0.0363 C.3     
  11 F11            4.1364    -0.7730    -1.3602 F       
  12 F12            4.6636     0.2397     0.6186 F       
  13 F13            3.6462    -1.8058     0.6178 F       
  14 C14           -2.6202     4.1624     0.0371 C.3     
  15 N15           -1.6980     9.7136    -0.2104 N.pl3   
  16 C16           -1.6765     9.8872    -1.5675 C.2     
  17 C17           -1.8750     8.7107    -2.1825 C.2     
  18 C18           -2.0368     7.7010    -1.1336 C.ar    
  19 C19           -2.2662     6.3237    -1.1392 C.ar    
  20 C20           -2.3721     5.6489     0.0440 C.ar    
  21 C21           -2.2535     6.3216     1.2526 C.ar    
  22 C22           -2.0276     7.6801     1.2813 C.ar    
  23 C23           -1.9163     8.3874     0.0884 C.ar    
  24 H24           -0.9212    -0.5643     0.0082 H       
  25 H25            1.2691    -1.7396    -0.0191 H       
  26 H26            3.1896     2.0764    -0.0174 H       
  27 H27           -0.5072     3.9538     0.0259 H       
  28 H28           -3.1910     3.8935    -0.8517 H       
  29 H29           -3.1826     3.8838     0.9282 H       
  30 H30           -1.5737    10.4190     0.4437 H       
  31 H31           -1.5230    10.8311    -2.0694 H       
  32 H32           -1.9089     8.5407    -3.2485 H       
  33 H33           -2.3604     5.7939    -2.0756 H       
  34 H34           -2.3396     5.7743     2.1797 H       
  35 H35           -1.9372     8.1945     2.2266 H       
@<TRIPOS>BOND
   1    1    2 ar
   2    1    6 ar
   3    1    7 1
   4    2    3 ar
   5    2   24 1
   6    3    4 ar
   7    3   25 1
   8    4    5 ar
   9    4   10 1
  10    5    6 ar
  11    5   26 1
  12    7    8 2
  13    7    9 am
  14    9   14 1
  15    9   27 1
  16   10   11 1
  17   10   12 1
  18   10   13 1
  19   14   20 1
  20   14   28 1
  21   14   29 1
  22   15   16 1
  23   15   23 1
  24   15   30 1
  25   16   17 2
  26   16   31 1
  27   17   18 1
  28   17   32 1
  29   18   19 ar
  30   18   23 ar
  31   19   20 ar
  32   19   33 1
  33   20   21 ar
  34   21   22 ar
  35   21   34 1
  36   22   23 ar
  37   22   35 1

#	End of record

