#	Name: ASD02198101
#	Creating user name:	WinNT
#	Creation time:	15. 06. 2019 20:18

#	Modifying user name:	WinNT
#	Modification time:	15. 06. 2019 20:18

#	Program:	/corina/corina34_cracker 3.40 0067  02.08.2006

@<TRIPOS>MOLECULE
ASD02198101
  53   54    0    0    0
SMALL
NO_CHARGES


@<TRIPOS>ATOM
   1 C1            -0.0187     1.3477    -0.2631 C.2     
   2 C2             0.0073    -0.0300    -0.2121 C.2     
   3 C3            -1.1767    -0.8348    -0.2436 C.1     
   4 S4             1.5603     1.9881    -0.2060 S.3     
   5 C5             2.2770     0.3874    -0.1119 C.2     
   6 C6             1.2898    -0.5684    -0.1275 C.2     
   7 C7             3.6583     0.1228    -0.0326 C.2     
   8 C8             4.6305     1.2297    -0.1475 C.ar    
   9 O9             4.0519    -1.0200     0.1308 O.2     
  10 N10            1.5439    -1.9299    -0.0651 N.pl3   
  11 N11           -1.1642     2.1034    -0.3538 N.pl3   
  12 N12           -2.1160    -1.4733    -0.2686 N.1     
  13 C13            5.2814     1.7121     0.9893 C.ar    
  14 C14           -1.0756     3.5650    -0.4015 C.3     
  15 C15           -0.8436     4.0080    -1.8231 C.2     
  16 C16            6.1902     2.7485     0.8746 C.ar    
  17 C17            6.4562     3.3096    -0.3678 C.ar    
  18 C18            5.8159     2.8381    -1.4972 C.ar    
  19 C19            4.9075     1.7961    -1.3983 C.ar    
  20 O20           -0.7290     5.3146    -2.1086 O.3     
  21 C21           -2.5546     3.8252     1.5953 C.3     
  22 C22           -2.3815     4.1722     0.1153 C.3     
  23 O23            6.8247     3.2197     1.9813 O.3     
  24 C24            7.7507     4.2913     1.7914 C.3     
  25 O25            4.2791     1.3331    -2.5094 O.3     
  26 C26            4.6018     1.9669    -3.7488 C.3     
  27 C27           -4.1300     4.0340     3.9483 C.3     
  28 S28           -4.1029     4.5451     2.2080 S.3     
  29 O29           -0.7607     3.1872    -2.7058 O.2     
  30 C30           -0.5064     5.6684    -3.4991 C.3     
  31 H31            2.4575    -2.2506    -0.0068 H       
  32 H32            0.8081    -2.5618    -0.0797 H       
  33 H33           -2.0307     1.6687    -0.3862 H       
  34 H34            5.0756     1.2773     1.9562 H       
  35 H35           -0.2473     3.8993     0.2231 H       
  36 H36            7.1668     4.1186    -0.4512 H       
  37 H37            6.0272     3.2793    -2.4601 H       
  38 H38           -2.5859     2.7421     1.7134 H       
  39 H39           -1.7165     4.2286     2.1635 H       
  40 H40           -2.3502     5.2553    -0.0028 H       
  41 H41           -3.2196     3.7688    -0.4530 H       
  42 H42            7.2312     5.1490     1.3642 H       
  43 H43            8.1849     4.5707     2.7513 H       
  44 H44            8.5424     3.9716     1.1138 H       
  45 H45            4.0317     1.5025    -4.5535 H       
  46 H46            4.3521     3.0263    -3.6911 H       
  47 H47            5.6677     1.8551    -3.9473 H       
  48 H48           -3.2524     4.4322     4.4576 H       
  49 H49           -5.0320     4.4170     4.4254 H       
  50 H50           -4.1218     2.9456     4.0074 H       
  51 H51           -1.3392     5.3085    -4.1034 H       
  52 H52           -0.4325     6.7520    -3.5910 H       
  53 H53            0.4195     5.2103    -3.8469 H       
@<TRIPOS>BOND
   1    1    2 2
   2    1    4 1
   3    1   11 1
   4    2    3 1
   5    2    6 1
   6    3   12 3
   7    4    5 1
   8    5    6 2
   9    5    7 1
  10    6   10 1
  11    7    8 1
  12    7    9 2
  13    8   13 ar
  14    8   19 ar
  15   10   31 1
  16   10   32 1
  17   11   14 1
  18   11   33 1
  19   13   16 ar
  20   13   34 1
  21   14   15 1
  22   14   22 1
  23   14   35 1
  24   15   20 1
  25   15   29 2
  26   16   17 ar
  27   16   23 1
  28   17   18 ar
  29   17   36 1
  30   18   19 ar
  31   18   37 1
  32   19   25 1
  33   20   30 1
  34   21   22 1
  35   21   28 1
  36   21   38 1
  37   21   39 1
  38   22   40 1
  39   22   41 1
  40   23   24 1
  41   24   42 1
  42   24   43 1
  43   24   44 1
  44   25   26 1
  45   26   45 1
  46   26   46 1
  47   26   47 1
  48   27   28 1
  49   27   48 1
  50   27   49 1
  51   27   50 1
  52   30   51 1
  53   30   52 1
  54   30   53 1

#	End of record

