#	Name: ASD08590017
#	Creating user name:	WinNT
#	Creation time:	15. 06. 2019 21:19

#	Modifying user name:	WinNT
#	Modification time:	15. 06. 2019 21:19

#	Program:	/corina/corina34_cracker 3.40 0067  02.08.2006

@<TRIPOS>MOLECULE
ASD08590017
  30   30    0    0    0
SMALL
NO_CHARGES


@<TRIPOS>ATOM
   1 O1            -0.2844     1.5119    -0.0484 O.3     
   2 C2            -0.0982     0.1831    -0.0852 C.2     
   3 C3            -1.2845    -0.7454    -0.0436 C.3     
   4 N4            -2.3239    -0.1717     0.8147 N.pl3   
   5 C5            -3.5627    -0.7949     0.9178 C.ar    
   6 C6            -4.5990    -0.1692     1.6033 C.ar    
   7 C7            -3.7641    -2.0410     0.3297 C.ar    
   8 C8            -4.9779    -2.6596     0.4261 C.ar    
   9 C9            -6.0256    -2.0432     1.1169 C.ar    
  10 C10           -5.8281    -0.7874     1.7058 C.ar    
  11 C11           -7.3357    -2.7102     1.2206 C.2     
  12 F12           -6.8361    -0.1860     2.3748 F       
  13 O13            1.0205    -0.2685    -0.1516 O.2     
  14 C14           -1.8365    -0.9312    -1.4585 C.3     
  15 C15           -0.8513    -2.1015     0.5169 C.3     
  16 O16           -8.2458    -2.1726     1.8219 O.2     
  17 N17           -7.5251    -3.9160     0.6491 N.am    
  18 H18            0.5068     2.0671    -0.0774 H       
  19 H19           -2.1480     0.6429     1.3110 H       
  20 H20           -4.4414     0.7990     2.0550 H       
  21 H21           -2.9573    -2.5201    -0.2050 H       
  22 H22           -5.1287    -3.6258    -0.0322 H       
  23 H23           -1.0368    -1.2653    -2.1195 H       
  24 H24           -2.6310    -1.6773    -1.4434 H       
  25 H25           -2.2349     0.0166    -1.8204 H       
  26 H26           -0.3079    -1.9521     1.4499 H       
  27 H27           -1.7322    -2.7156     0.7038 H       
  28 H28           -0.2051    -2.6029    -0.2036 H       
  29 H29           -6.7991    -4.3448     0.1695 H       
  30 H30           -8.3873    -4.3550     0.7174 H       
@<TRIPOS>BOND
   1    1    2 1
   2    1   18 1
   3    2    3 1
   4    2   13 2
   5    3    4 1
   6    3   14 1
   7    3   15 1
   8    4    5 1
   9    4   19 1
  10    5    6 ar
  11    5    7 ar
  12    6   10 ar
  13    6   20 1
  14    7    8 ar
  15    7   21 1
  16    8    9 ar
  17    8   22 1
  18    9   10 ar
  19    9   11 1
  20   10   12 1
  21   11   16 2
  22   11   17 am
  23   14   23 1
  24   14   24 1
  25   14   25 1
  26   15   26 1
  27   15   27 1
  28   15   28 1
  29   17   29 1
  30   17   30 1

#	End of record

