#	Name: ASD01814422
#	Creating user name:	WinNT
#	Creation time:	15. 06. 2019 19:32

#	Modifying user name:	WinNT
#	Modification time:	15. 06. 2019 19:32

#	Program:	/corina/corina34_cracker 3.40 0067  02.08.2006

@<TRIPOS>MOLECULE
ASD01814422
  60   66    0    0    0
SMALL
NO_CHARGES


@<TRIPOS>ATOM
   1 C1            -0.0167     1.3819     0.0096 C.ar    
   2 C2             0.0021    -0.0041     0.0020 C.ar    
   3 C3             1.1970    -0.6936    -0.0126 C.ar    
   4 C4             2.3990     0.0034    -0.0203 C.ar    
   5 C5             2.3751     1.4118    -0.0130 C.ar    
   6 C6             1.1661     2.0940     0.0022 C.ar    
   7 N7             3.6102    -0.6577    -0.0345 N.pl3   
   8 N8             4.7455    -0.0610    -0.0416 N.2     
   9 C9             4.8827     1.2395    -0.0363 C.2     
  10 C10            3.6768     2.1037    -0.0217 C.2     
  11 C11            6.0122     2.1720    -0.0422 C.2     
  12 N12            5.4770     3.4118    -0.0314 N.am    
  13 N13            4.0818     3.3389    -0.0194 N.2     
  14 C14            3.5986    -2.1226    -0.0412 C.3     
  15 C15            3.5816    -2.6183    -1.4643 C.ar    
  16 C16            4.7721    -2.8547    -2.1268 C.ar    
  17 C17            4.7597    -3.3086    -3.4313 C.ar    
  18 C18            3.5504    -3.5279    -4.0771 C.ar    
  19 C19            2.3568    -3.2900    -3.4090 C.ar    
  20 C20            2.3755    -2.8412    -2.1030 C.ar    
  21 O21            7.1978     1.8862    -0.0541 O.2     
  22 C22            6.2152     4.6009    -0.0321 C.ar    
  23 N23            3.5346    -3.9881    -5.4011 N.pl3   
  24 C24            2.4325    -4.2411    -6.1426 C.2     
  25 C25            2.8438    -4.6660    -7.3598 C.2     
  26 C26            4.2430    -4.6732    -7.3634 C.2     
  27 N27            4.6578    -4.2615    -6.1924 N.2     
  28 C28            7.1559     4.8273    -1.0245 C.ar    
  29 C29            7.8825     6.0020    -1.0234 C.ar    
  30 C30            7.6699     6.9401    -0.0341 C.ar    
  31 C31            6.7303     6.7169     0.9654 C.ar    
  32 C32            5.9956     5.5543     0.9632 C.ar    
  33 C33            6.5637     7.7790     2.0206 C.3     
  34 C34            5.2394     7.5990     2.7599 C.3     
  35 C35            5.1425     6.1437     3.2323 C.3     
  36 C36            4.9493     5.2537     2.0042 C.3     
  37 H37           -0.9605     1.9069     0.0169 H       
  38 H38           -0.9294    -0.5505     0.0080 H       
  39 H39            1.1981    -1.7735    -0.0177 H       
  40 H40            1.1510     3.1739     0.0077 H       
  41 H41            4.4903    -2.4954     0.4627 H       
  42 H42            2.7105    -2.4813     0.4791 H       
  43 H43            5.7125    -2.6839    -1.6239 H       
  44 H44            5.6898    -3.4923    -3.9485 H       
  45 H45            1.4145    -3.4594    -3.9090 H       
  46 H46            1.4473    -2.6560    -1.5828 H       
  47 H47            1.4080    -4.1255    -5.8210 H       
  48 H48            2.2049    -4.9494    -8.1831 H       
  49 H49            4.8723    -4.9641    -8.1914 H       
  50 H50            7.3203     4.0884    -1.7949 H       
  51 H51            8.6156     6.1857    -1.7948 H       
  52 H52            8.2400     7.8574    -0.0362 H       
  53 H53            7.3855     7.7095     2.7333 H       
  54 H54            6.5808     8.7610     1.5480 H       
  55 H55            5.2057     8.2672     3.6204 H       
  56 H56            4.4107     7.8228     2.0881 H       
  57 H57            6.0592     5.8645     3.7518 H       
  58 H58            4.2909     6.0315     3.9033 H       
  59 H59            3.9594     5.4311     1.5838 H       
  60 H60            5.0307     4.2082     2.3015 H       
@<TRIPOS>BOND
   1    1    2 ar
   2    1    6 ar
   3    1   37 1
   4    2    3 ar
   5    2   38 1
   6    3    4 ar
   7    3   39 1
   8    4    5 ar
   9    4    7 1
  10    5    6 ar
  11    5   10 1
  12    6   40 1
  13    7    8 1
  14    7   14 1
  15    8    9 2
  16    9   10 1
  17    9   11 1
  18   10   13 2
  19   11   12 am
  20   11   21 2
  21   12   13 1
  22   12   22 1
  23   14   15 1
  24   14   41 1
  25   14   42 1
  26   15   16 ar
  27   15   20 ar
  28   16   17 ar
  29   16   43 1
  30   17   18 ar
  31   17   44 1
  32   18   19 ar
  33   18   23 1
  34   19   20 ar
  35   19   45 1
  36   20   46 1
  37   22   28 ar
  38   22   32 ar
  39   23   24 1
  40   23   27 1
  41   24   25 2
  42   24   47 1
  43   25   26 1
  44   25   48 1
  45   26   27 2
  46   26   49 1
  47   28   29 ar
  48   28   50 1
  49   29   30 ar
  50   29   51 1
  51   30   31 ar
  52   30   52 1
  53   31   32 ar
  54   31   33 1
  55   32   36 1
  56   33   34 1
  57   33   53 1
  58   33   54 1
  59   34   35 1
  60   34   55 1
  61   34   56 1
  62   35   36 1
  63   35   57 1
  64   35   58 1
  65   36   59 1
  66   36   60 1

#	End of record

