#	Name: ASD01911389
#	Creating user name:	WinNT
#	Creation time:	15. 06. 2019 19:57

#	Modifying user name:	WinNT
#	Modification time:	15. 06. 2019 19:57

#	Program:	/corina/corina34_cracker 3.40 0067  02.08.2006

@<TRIPOS>MOLECULE
ASD01911389
  39   41    0    0    0
SMALL
NO_CHARGES


@<TRIPOS>ATOM
   1 N1            -0.0106     1.4047    -0.0037 N.2     
   2 N2            -0.0036     0.0047    -0.0430 N.pl3   
   3 C3             1.2361     1.8260     0.0358 C.2     
   4 C4             2.0817     0.7040     0.0230 C.2     
   5 C5             1.2955    -0.4095    -0.0258 C.2     
   6 C6             1.7666    -1.8124    -0.0549 C.ar    
   7 C7             1.6736     3.2436     0.0850 C.ar    
   8 C8             0.7283     4.2670     0.0929 C.ar    
   9 C9            -1.1838    -0.8618    -0.0936 C.3     
  10 C10           -1.6225    -1.0299    -1.5255 C.2     
  11 O11           -2.6915    -1.7882    -1.8153 O.3     
  12 O12           -1.0120    -0.4821    -2.4127 O.2     
  13 C13           -3.0565    -1.9053    -3.2158 C.3     
  14 C14            0.9451    -2.8153    -0.5717 C.ar    
  15 C15            1.1405     5.5835     0.1392 C.ar    
  16 C16            2.4893     5.8875     0.1777 C.ar    
  17 C17            3.4320     4.8753     0.1696 C.ar    
  18 C18            3.0307     3.5553     0.1293 C.ar    
  19 C19            1.3828    -4.1251    -0.6003 C.ar    
  20 C20            2.6342    -4.4518    -0.1181 C.ar    
  21 C21            3.4667    -3.4576     0.4024 C.ar    
  22 C22            3.0327    -2.1332     0.4281 C.ar    
  23 C23            4.7646    -3.7975     0.9027 C.1     
  24 N24            5.7943    -4.0672     1.2997 N.1     
  25 H25            3.1613     0.7203     0.0478 H       
  26 H26           -0.3251     4.0307     0.0625 H       
  27 H27           -0.9373    -1.8364     0.3277 H       
  28 H28           -1.9910    -0.4103     0.4831 H       
  29 H29           -3.2813    -0.9168    -3.6165 H       
  30 H30           -2.2276    -2.3429    -3.7720 H       
  31 H31           -3.9348    -2.5439    -3.3102 H       
  32 H32           -0.0355    -2.5668    -0.9499 H       
  33 H33            0.4086     6.3776     0.1450 H       
  34 H34            2.8076     6.9189     0.2139 H       
  35 H35            4.4839     5.1182     0.1991 H       
  36 H36            3.7676     2.7658     0.1230 H       
  37 H37            0.7428    -4.8971    -1.0013 H       
  38 H38            2.9704    -5.4778    -0.1430 H       
  39 H39            3.6720    -1.3607     0.8293 H       
@<TRIPOS>BOND
   1    1    2 1
   2    1    3 2
   3    2    9 1
   4    2    5 1
   5    3    4 1
   6    3    7 1
   7    4    5 2
   8    4   25 1
   9    5    6 1
  10    6   14 ar
  11    6   22 ar
  12    7    8 ar
  13    7   18 ar
  14    8   15 ar
  15    8   26 1
  16    9   10 1
  17    9   27 1
  18    9   28 1
  19   10   11 1
  20   10   12 2
  21   11   13 1
  22   13   29 1
  23   13   30 1
  24   13   31 1
  25   14   19 ar
  26   14   32 1
  27   15   16 ar
  28   15   33 1
  29   16   17 ar
  30   16   34 1
  31   17   18 ar
  32   17   35 1
  33   18   36 1
  34   19   20 ar
  35   19   37 1
  36   20   21 ar
  37   20   38 1
  38   21   22 ar
  39   21   23 1
  40   22   39 1
  41   23   24 3

#	End of record

