#	Name: ASD02398040
#	Creating user name:	WinNT
#	Creation time:	15. 06. 2019 20:20

#	Modifying user name:	WinNT
#	Modification time:	15. 06. 2019 20:20

#	Program:	/corina/corina34_cracker 3.40 0067  02.08.2006

@<TRIPOS>MOLECULE
ASD02398040
  65   69    0    0    0
SMALL
NO_CHARGES


@<TRIPOS>ATOM
   1 C1            -0.9727    -0.6340     1.1213 C.ar    
   2 C2            -0.0081    -0.2632     0.1707 C.ar    
   3 C3            -0.3192     0.6984    -0.7864 C.ar    
   4 C4            -1.5705     1.2818    -0.7973 C.ar    
   5 C5            -2.5214     0.9163     0.1398 C.ar    
   6 C6            -2.2310    -0.0397     1.0927 C.ar    
   7 C7            -1.9028     2.3229    -1.8350 C.3     
   8 C8            -2.3718     1.6436    -3.0958 C.2     
   9 O9            -2.5222     0.4449    -3.1161 O.2     
  10 O10           -2.6225     2.3702    -4.1962 O.3     
  11 C11            1.3343    -0.8920     0.1866 C.ar    
  12 C12            2.2306    -0.6024     1.2145 C.ar    
  13 C13            1.7031    -1.7794    -0.8230 C.ar    
  14 C14            2.9541    -2.3622    -0.8027 C.ar    
  15 C15            3.8409    -2.0674     0.2169 C.ar    
  16 C16            3.4785    -1.1910     1.2243 C.ar    
  17 C17            1.8374     0.3521     2.3125 C.3     
  18 N18            2.9395     0.4760     3.2697 N.am    
  19 C19            3.9870     1.3030     3.1491 C.2     
  20 O20            4.8573     1.2250     4.1621 O.3     
  21 C21            4.3944     0.2344     5.1250 C.3     
  22 C22            3.0735    -0.2823     4.5229 C.3     
  23 O23            4.1333     2.0548     2.2058 O.2     
  24 C24            3.1668    -1.7809     4.2287 C.3     
  25 C25            5.3951    -0.8851     5.2537 C.ar    
  26 C26            5.5734    -1.5163     6.4706 C.ar    
  27 C27            6.1307    -1.2845     4.1536 C.ar    
  28 C28            7.0486    -2.3113     4.2717 C.ar    
  29 C29            7.2312    -2.9384     5.4900 C.ar    
  30 C30            6.4913    -2.5431     6.5887 C.ar    
  31 C31           -0.6547    -1.6572     2.1457 C.ar    
  32 C32           -0.8127    -1.3741     3.5055 C.ar    
  33 C33           -0.5020    -2.3637     4.4225 C.ar    
  34 C34           -0.0495    -3.5889     3.9684 C.ar    
  35 N35            0.0897    -3.8272     2.6784 N.ar    
  36 C36           -0.1986    -2.9195     1.7687 C.ar    
  37 C37            5.2049    -2.7078     0.2339 C.3     
  38 F38            5.3376    -3.5520    -0.8737 F       
  39 F39            6.1876    -1.7133     0.1826 F       
  40 F40            5.3559    -3.4524     1.4086 F       
  41 H41            0.4183     0.9885    -1.5202 H       
  42 H42           -3.4973     1.3785     0.1229 H       
  43 H43           -2.9775    -0.3204     1.8210 H       
  44 H44           -2.6919     2.9732    -1.4575 H       
  45 H45           -1.0147     2.9169    -2.0511 H       
  46 H46           -2.9213     1.8901    -4.9806 H       
  47 H47            1.0113    -2.0109    -1.6193 H       
  48 H48            3.2410    -3.0500    -1.5844 H       
  49 H49            4.1750    -0.9645     2.0180 H       
  50 H50            1.6176     1.3294     1.8829 H       
  51 H51            0.9528    -0.0272     2.8241 H       
  52 H52            4.2128     0.6992     6.0941 H       
  53 H53            2.2397    -0.0739     5.1933 H       
  54 H54            3.2859    -2.3280     5.1639 H       
  55 H55            2.2562    -2.1104     3.7284 H       
  56 H56            4.0249    -1.9719     3.5843 H       
  57 H57            4.9957    -1.2069     7.3291 H       
  58 H58            5.9880    -0.7945     3.2018 H       
  59 H59            7.6228    -2.6238     3.4120 H       
  60 H60            7.9481    -3.7409     5.5821 H       
  61 H61            6.6340    -3.0330     7.5405 H       
  62 H62           -1.1678    -0.4080     3.8324 H       
  63 H63           -0.6115    -2.1805     5.4812 H       
  64 H64            0.1941    -4.3629     4.6812 H       
  65 H65           -0.0716    -3.1519     0.7216 H       
@<TRIPOS>BOND
   1    1    2 ar
   2    1   31 1
   3    1    6 ar
   4    2    3 ar
   5    2   11 1
   6    3    4 ar
   7    3   41 1
   8    4    5 ar
   9    4    7 1
  10    5    6 ar
  11    5   42 1
  12    6   43 1
  13    7    8 1
  14    7   44 1
  15    7   45 1
  16    8    9 2
  17    8   10 1
  18   10   46 1
  19   11   12 ar
  20   11   13 ar
  21   12   17 1
  22   12   16 ar
  23   13   14 ar
  24   13   47 1
  25   14   15 ar
  26   14   48 1
  27   15   16 ar
  28   15   37 1
  29   16   49 1
  30   17   18 1
  31   17   50 1
  32   17   51 1
  33   18   19 am
  34   18   22 1
  35   19   20 1
  36   19   23 2
  37   20   21 1
  38   21   22 1
  39   21   25 1
  40   21   52 1
  41   22   24 1
  42   22   53 1
  43   24   54 1
  44   24   55 1
  45   24   56 1
  46   25   26 ar
  47   25   27 ar
  48   26   30 ar
  49   26   57 1
  50   27   28 ar
  51   27   58 1
  52   28   29 ar
  53   28   59 1
  54   29   30 ar
  55   29   60 1
  56   30   61 1
  57   31   32 ar
  58   31   36 ar
  59   32   33 ar
  60   32   62 1
  61   33   34 ar
  62   33   63 1
  63   34   35 ar
  64   34   64 1
  65   35   36 ar
  66   36   65 1
  67   37   38 1
  68   37   39 1
  69   37   40 1

#	End of record

