#	Name: ASD04882319
#	Creating user name:	WinNT
#	Creation time:	15. 06. 2019 20:54

#	Modifying user name:	WinNT
#	Modification time:	15. 06. 2019 20:54

#	Program:	/corina/corina34_cracker 3.40 0067  02.08.2006

@<TRIPOS>MOLECULE
ASD04882319
  76   81    0    0    0
SMALL
NO_CHARGES


@<TRIPOS>ATOM
   1 N1            -0.0169     1.3970     0.0097 N.am    
   2 C2             0.1098     0.0022    -0.0340 C.ar    
   3 C3            -1.0275    -0.8062     0.0458 C.ar    
   4 C4            -0.9033    -2.1902     0.0025 C.ar    
   5 C5             0.3401    -2.7697    -0.1196 C.ar    
   6 C6             1.4817    -1.9670    -0.1999 C.ar    
   7 C7             1.3590    -0.5750    -0.1619 C.ar    
   8 N8            -2.2867    -0.2246     0.1693 N.3     
   9 C9            -3.1527    -0.5996    -0.9571 C.3     
  10 C10           -2.9093    -0.5841     1.4510 C.3     
  11 C11           -4.2531     0.1367     1.5822 C.3     
  12 N12           -5.1192    -0.2382     0.4557 N.3     
  13 C13           -4.4965     0.1212    -0.8260 C.3     
  14 C14            2.8133    -2.5878    -0.3296 C.2     
  15 O15            3.8059    -1.8887    -0.3994 O.2     
  16 C16            0.9209     2.1771    -0.5632 C.2     
  17 C17            0.7437     3.6401    -0.5948 C.2     
  18 O18            1.9135     1.6740    -1.0541 O.2     
  19 N19            2.9301    -3.9298    -0.3708 N.am    
  20 C20           -6.3822     0.3451     0.5796 C.ar    
  21 C21           -7.5141    -0.4559     0.6591 C.ar    
  22 C22           -6.5087     1.7278     0.6293 C.ar    
  23 C23           -7.7587     2.3012     0.7523 C.ar    
  24 C24           -8.7615     0.1243     0.7821 C.ar    
  25 N25           -0.3089     4.3381    -0.0885 N.2     
  26 C26           -0.1073     5.6031    -0.3064 C.2     
  27 O27            1.0591     5.7605    -0.9480 O.3     
  28 C28            1.6050     4.5475    -1.1307 C.2     
  29 C29           -1.0381     6.7172     0.0978 C.3     
  30 C30           -0.4925     7.7828     1.0506 C.3     
  31 C31           -0.7267     8.1218    -0.4229 C.3     
  32 C32           -8.8842     1.5007     0.8265 C.ar    
  33 C33           -7.3813    -1.9563     0.6108 C.3     
  34 C34            4.1911    -4.5177    -0.4936 C.2     
  35 C35            4.4626    -5.9092    -0.5493 C.2     
  36 N36            5.3325    -3.8826    -0.5836 N.2     
  37 N37            6.3650    -4.8204    -0.6933 N.pl3   
  38 C38            5.8317    -6.0510    -0.6720 C.2     
  39 C39            3.4734    -6.9959    -0.4875 C.2     
  40 O40            3.8779    -8.2799    -0.5524 O.3     
  41 O41            2.2911    -6.7360    -0.3780 O.2     
  42 C42            2.8469    -9.3001    -0.4855 C.3     
  43 C43            3.4925   -10.6844    -0.5738 C.3     
  44 H44           -0.7817     1.8009     0.4488 H       
  45 H45           -1.7839    -2.8124     0.0651 H       
  46 H46            0.4332    -3.8451    -0.1529 H       
  47 H47            2.2392     0.0477    -0.2241 H       
  48 H48           -2.6757    -0.3120    -1.8941 H       
  49 H49           -3.3157    -1.6773    -0.9475 H       
  50 H50           -3.0695    -1.6616     1.4880 H       
  51 H51           -2.2549    -0.2851     2.2698 H       
  52 H52           -4.7301    -0.1509     2.5191 H       
  53 H53           -4.0901     1.2145     1.5726 H       
  54 H54           -4.3363     1.1987    -0.8629 H       
  55 H55           -5.1510    -0.1778    -1.6447 H       
  56 H56            2.1383    -4.4875    -0.3151 H       
  57 H57           -5.6302     2.3534     0.5722 H       
  58 H58           -7.8577     3.3760     0.7911 H       
  59 H59           -9.6421    -0.4980     0.8440 H       
  60 H60            2.5455     4.3324    -1.6161 H       
  61 H61           -2.0870     6.4394     0.2009 H       
  62 H62           -1.1827     8.2063     1.7803 H       
  63 H63            0.5396     7.6780     1.3850 H       
  64 H64            0.1513     8.2400    -1.0578 H       
  65 H65           -1.5709     8.7683    -0.6626 H       
  66 H66           -9.8607     1.9518     0.9233 H       
  67 H67           -7.2597    -2.3430     1.6226 H       
  68 H68           -8.2773    -2.3860     0.1628 H       
  69 H69           -6.5110    -2.2249     0.0121 H       
  70 H70            7.3096    -4.6147    -0.7737 H       
  71 H71            6.3736    -6.9828    -0.7384 H       
  72 H72            2.3075    -9.2103     0.4575 H       
  73 H73            2.1522    -9.1696    -1.3152 H       
  74 H74            4.0319   -10.7742    -1.5167 H       
  75 H75            4.1872   -10.8149     0.2560 H       
  76 H76            2.7185   -11.4502    -0.5235 H       
@<TRIPOS>BOND
   1    1    2 1
   2    1   16 am
   3    1   44 1
   4    2    3 ar
   5    2    7 ar
   6    3    4 ar
   7    3    8 1
   8    4    5 ar
   9    4   45 1
  10    5    6 ar
  11    5   46 1
  12    6    7 ar
  13    6   14 1
  14    7   47 1
  15    8    9 1
  16    8   10 1
  17    9   13 1
  18    9   48 1
  19    9   49 1
  20   10   11 1
  21   10   50 1
  22   10   51 1
  23   11   12 1
  24   11   52 1
  25   11   53 1
  26   12   13 1
  27   12   20 1
  28   13   54 1
  29   13   55 1
  30   14   15 2
  31   14   19 am
  32   16   18 2
  33   16   17 1
  34   17   25 1
  35   17   28 2
  36   19   34 1
  37   19   56 1
  38   20   21 ar
  39   20   22 ar
  40   21   33 1
  41   21   24 ar
  42   22   23 ar
  43   22   57 1
  44   23   32 ar
  45   23   58 1
  46   24   32 ar
  47   24   59 1
  48   25   26 2
  49   26   27 1
  50   26   29 1
  51   27   28 1
  52   28   60 1
  53   29   30 1
  54   29   31 1
  55   29   61 1
  56   30   31 1
  57   30   62 1
  58   30   63 1
  59   31   64 1
  60   31   65 1
  61   32   66 1
  62   33   67 1
  63   33   68 1
  64   33   69 1
  65   34   35 1
  66   34   36 2
  67   35   39 1
  68   35   38 2
  69   36   37 1
  70   37   38 1
  71   37   70 1
  72   38   71 1
  73   39   40 1
  74   39   41 2
  75   40   42 1
  76   42   43 1
  77   42   72 1
  78   42   73 1
  79   43   74 1
  80   43   75 1
  81   43   76 1

#	End of record

