#	Name: ASD01141117
#	Creating user name:	WinNT
#	Creation time:	15. 06. 2019 19:01

#	Modifying user name:	WinNT
#	Modification time:	15. 06. 2019 19:01

#	Program:	/corina/corina34_cracker 3.40 0067  02.08.2006

@<TRIPOS>MOLECULE
ASD01141117
  65   69    0    0    0
SMALL
NO_CHARGES


@<TRIPOS>ATOM
   1 C1             0.0673     1.3449     0.1625 C.3     
   2 C2             0.3068    -0.1701     0.2773 C.3     
   3 C3             1.4214     2.0055    -0.0007 C.3     
   4 C4             1.2405    -0.4977     1.4376 C.3     
   5 C5             2.2269     1.7497     1.3019 C.3     
   6 C6             1.4367     3.4993    -0.1361 C.2     
   7 C7             2.1567     1.3838    -1.1898 C.3     
   8 C8             2.5665     0.2706     1.3282 C.3     
   9 C9             1.5270    -1.9994     1.4712 C.3     
  10 H10            0.7508    -0.2234     2.3720 H       
  11 H11            1.6382     2.0219     2.1779 H       
  12 C12            3.4139     2.7017     1.1087 C.3     
  13 O13            0.5917     4.1916    -0.6509 O.2     
  14 C14            2.7373     3.9654     0.5104 C.3     
  15 C15            3.4367    -0.0524     2.5436 C.3     
  16 H16            3.0779    -0.0065     0.4063 H       
  17 C17            2.4019    -2.3224     2.6845 C.3     
  18 C18            0.2074    -2.7669     1.5763 C.3     
  19 C19            3.7214    -1.5553     2.5818 C.3     
  20 C20            2.6860    -3.8250     2.7246 C.3     
  21 H21            1.8819    -2.0270     3.5958 H       
  22 C22            0.4915    -4.2695     1.6172 C.3     
  23 C23            1.3654    -4.5906     2.8314 C.3     
  24 O24            0.6840    -4.2009     4.0254 O.3     
  25 H25           -0.1633    -4.6476     4.1584 H       
  26 C26            2.2556    -2.4091     0.1897 C.3     
  27 H27           -0.6481    -0.6714     0.4352 H       
  28 O28            4.6697     0.6639     2.4506 O.3     
  29 C29            6.5321     1.7508     3.4990 C.ar    
  30 C30            6.5220     3.1292     3.3953 C.ar    
  31 C31            7.7058     3.8165     3.2023 C.ar    
  32 C32            8.8997     3.1253     3.1136 C.ar    
  33 C33            8.9098     1.7470     3.2182 C.ar    
  34 C34            7.7259     1.0596     3.4097 C.ar    
  35 C35            5.2423     1.0021     3.7155 C.3     
  36 H36           -0.5557     1.5568    -0.7064 H       
  37 H37           -0.4181     1.7129     1.0664 H       
  38 H38            0.7497    -0.5326    -0.6504 H       
  39 H39            1.6188     1.6128    -2.1097 H       
  40 H40            3.1654     1.7927    -1.2473 H       
  41 H41            2.2097     0.3029    -1.0594 H       
  42 H42            3.8858     2.9310     2.0642 H       
  43 H43            4.1370     2.2820     0.4094 H       
  44 H44            3.3865     4.4165    -0.2401 H       
  45 H45            2.5244     4.6847     1.3012 H       
  46 H46            2.9134     0.2415     3.4535 H       
  47 H47           -0.3134    -2.4708     2.4869 H       
  48 H48           -0.4154    -2.5385     0.7113 H       
  49 H49            4.2427    -1.8495     1.6708 H       
  50 H50            4.3436    -1.7853     3.4467 H       
  51 H51            3.2051    -4.1212     1.8131 H       
  52 H52            3.3097    -4.0540     3.5888 H       
  53 H53           -0.4491    -4.8152     1.6922 H       
  54 H54            1.0118    -4.5658     0.7065 H       
  55 H55            1.5674    -5.6613     2.8609 H       
  56 H56            3.1953    -1.8617     0.1152 H       
  57 H57            2.4596    -3.4795     0.2142 H       
  58 H58            1.6310    -2.1779    -0.6731 H       
  59 H59            5.5893     3.6692     3.4646 H       
  60 H60            7.6979     4.8934     3.1206 H       
  61 H61            9.8245     3.6622     2.9622 H       
  62 H62            9.8425     1.2070     3.1481 H       
  63 H63            7.7337    -0.0173     3.4907 H       
  64 H64            4.5470     1.6297     4.2729 H       
  65 H65            5.4414     0.0908     4.2794 H       
@<TRIPOS>BOND
   1    1    2 1
   2    1    3 1
   3    1   36 1
   4    1   37 1
   5    2    4 1
   6    2   27 1
   7    2   38 1
   8    3    5 1
   9    3    6 1
  10    3    7 1
  11    4    8 1
  12    4   10 1
  13    4    9 1
  14    5    8 1
  15    5   11 1
  16    5   12 1
  17    6   13 2
  18    6   14 1
  19    7   39 1
  20    7   40 1
  21    7   41 1
  22    8   16 1
  23    8   15 1
  24    9   18 1
  25    9   26 1
  26    9   17 1
  27   12   14 1
  28   12   42 1
  29   12   43 1
  30   14   44 1
  31   14   45 1
  32   15   19 1
  33   15   28 1
  34   15   46 1
  35   17   20 1
  36   17   21 1
  37   17   19 1
  38   18   22 1
  39   18   47 1
  40   18   48 1
  41   19   49 1
  42   19   50 1
  43   20   23 1
  44   20   51 1
  45   20   52 1
  46   22   23 1
  47   22   53 1
  48   22   54 1
  49   23   24 1
  50   23   55 1
  51   24   25 1
  52   26   56 1
  53   26   57 1
  54   26   58 1
  55   28   35 1
  56   29   30 ar
  57   29   34 ar
  58   29   35 1
  59   30   31 ar
  60   30   59 1
  61   31   32 ar
  62   31   60 1
  63   32   33 ar
  64   32   61 1
  65   33   34 ar
  66   33   62 1
  67   34   63 1
  68   35   64 1
  69   35   65 1

#	End of record

