#	Name: ASD01880387
#	Creating user name:	WinNT
#	Creation time:	15. 06. 2019 19:40

#	Modifying user name:	WinNT
#	Modification time:	15. 06. 2019 19:40

#	Program:	/corina/corina34_cracker 3.40 0067  02.08.2006

@<TRIPOS>MOLECULE
ASD01880387
  45   47    0    0    0
SMALL
NO_CHARGES


@<TRIPOS>ATOM
   1 C1            -0.0158     1.3166     0.0093 C.ar    
   2 N2             0.0021    -0.0041     0.0020 N.ar    
   3 C3            -1.1218    -0.7055     0.0094 C.ar    
   4 C4            -2.3611    -0.0158     0.0254 C.ar    
   5 C5            -2.3234     1.3812     0.0325 C.ar    
   6 N6            -1.1363     2.0007     0.0291 N.ar    
   7 C7            -3.7205    -0.5227     0.0357 C.2     
   8 C8            -4.6572     0.4056     0.0497 C.2     
   9 S9            -3.9623     2.0156     0.0517 S.3     
  10 C10           -6.1367     0.1192     0.0623 C.3     
  11 N11           -1.0871    -2.0883     0.0012 N.pl3   
  12 C12           -6.6235     0.0145     1.5090 C.3     
  13 C13            0.1995    -2.7886    -0.0158 C.3     
  14 C14           -0.0386    -4.2767    -0.0219 C.ar    
  15 C15           -0.1597    -4.9507    -1.2224 C.ar    
  16 C16           -0.3783    -6.3161    -1.2332 C.ar    
  17 C17           -0.4759    -7.0115    -0.0391 C.ar    
  18 C18           -0.3535    -6.3327     1.1699 C.ar    
  19 C19           -0.1298    -4.9656     1.1737 C.ar    
  20 O20           -0.6913    -8.3542    -0.0481 O.3     
  21 C21           -0.8072    -8.9842    -1.3255 C.3     
  22 O22           -0.4491    -7.0108     2.3449 O.3     
  23 C23           -0.3135    -6.2492     3.5464 C.3     
  24 C24            1.2933     2.0630     0.0008 C.3     
  25 H25           -3.9477    -1.5785     0.0318 H       
  26 H26           -6.6674     0.9266    -0.4421 H       
  27 H27           -6.3292    -0.8209    -0.4548 H       
  28 H28           -1.9147    -2.5942     0.0067 H       
  29 H29           -7.6936    -0.1927     1.5181 H       
  30 H30           -6.0928    -0.7930     2.0134 H       
  31 H31           -6.4310     0.9545     2.0261 H       
  32 H32            0.7553    -2.5060    -0.9099 H       
  33 H33            0.7733    -2.5161     0.8700 H       
  34 H34           -0.0838    -4.4098    -2.1540 H       
  35 H35           -0.4733    -6.8404    -2.1727 H       
  36 H36           -0.0345    -4.4366     2.1104 H       
  37 H37           -0.9768   -10.0523    -1.1898 H       
  38 H38           -1.6452    -8.5495    -1.8703 H       
  39 H39            0.1122    -8.8313    -1.8907 H       
  40 H40           -0.4097    -6.9098     4.4080 H       
  41 H41            0.6651    -5.7694     3.5639 H       
  42 H42           -1.0923    -5.4876     3.5836 H       
  43 H43            1.5991     2.2485    -1.0289 H       
  44 H44            1.1731     3.0133     0.5209 H       
  45 H45            2.0546     1.4670     0.5042 H       
@<TRIPOS>BOND
   1    1    2 ar
   2    1   24 1
   3    1    6 ar
   4    2    3 ar
   5    3    4 ar
   6    3   11 1
   7    4    5 ar
   8    4    7 1
   9    5    6 ar
  10    5    9 1
  11    7    8 2
  12    7   25 1
  13    8    9 1
  14    8   10 1
  15   10   12 1
  16   10   26 1
  17   10   27 1
  18   11   13 1
  19   11   28 1
  20   12   29 1
  21   12   30 1
  22   12   31 1
  23   13   14 1
  24   13   32 1
  25   13   33 1
  26   14   15 ar
  27   14   19 ar
  28   15   16 ar
  29   15   34 1
  30   16   17 ar
  31   16   35 1
  32   17   18 ar
  33   17   20 1
  34   18   19 ar
  35   18   22 1
  36   19   36 1
  37   20   21 1
  38   21   37 1
  39   21   38 1
  40   21   39 1
  41   22   23 1
  42   23   40 1
  43   23   41 1
  44   23   42 1
  45   24   43 1
  46   24   44 1
  47   24   45 1

#	End of record

