#	Name: ASD01813525
#	Creating user name:	WinNT
#	Creation time:	15. 06. 2019 19:30

#	Modifying user name:	WinNT
#	Modification time:	15. 06. 2019 19:30

#	Program:	/corina/corina34_cracker 3.40 0067  02.08.2006

@<TRIPOS>MOLECULE
ASD01813525
  42   45    0    0    0
SMALL
NO_CHARGES


@<TRIPOS>ATOM
   1 C1            -0.0168     1.3825    -0.0466 C.ar    
   2 C2             0.0020    -0.0038    -0.0536 C.ar    
   3 C3             1.1975    -0.6932    -0.0497 C.ar    
   4 C4             2.4040     0.0044    -0.0390 C.ar    
   5 C5             2.3834     1.4096    -0.0324 C.ar    
   6 C6             1.1657     2.0946    -0.0360 C.ar    
   7 N7             3.6050    -0.6734    -0.0339 N.pl3   
   8 C8             4.7898    -0.0496    -0.0227 C.2     
   9 C9             4.8962     1.3266    -0.0150 C.2     
  10 C10            3.6660     2.1351    -0.0211 C.2     
  11 O11            3.7066     3.3531    -0.0152 O.2     
  12 C12            6.2155     1.9737    -0.0018 C.2     
  13 O13            6.3065     3.3187     0.0057 O.3     
  14 O14            7.2249     1.2962     0.0024 O.2     
  15 C15            3.5837    -2.1382    -0.0406 C.3     
  16 C16            3.4403    -2.6321    -1.4571 C.ar    
  17 N17            2.2384    -2.7342    -1.9904 N.ar    
  18 C18            2.0590    -3.1603    -3.2241 C.ar    
  19 C19            3.1476    -3.5217    -4.0147 C.ar    
  20 C20            4.4346    -3.4247    -3.4782 C.ar    
  21 C21            4.5715    -2.9658    -2.1795 C.ar    
  22 C22            2.9441    -4.0024    -5.4037 C.ar    
  23 F23            1.1984    -2.0441    -0.0557 F       
  24 F24            1.1457     3.4455    -0.0301 F       
  25 C25            2.0179    -5.0148    -5.6768 C.ar    
  26 C26            1.8651    -5.4283    -6.9903 C.ar    
  27 C27            2.6266    -4.8320    -7.9799 C.ar    
  28 N28            3.4931    -3.8789    -7.6901 N.ar    
  29 C29            3.6678    -3.4491    -6.4569 C.ar    
  30 Cl30           2.4401    -5.3454    -9.6278 Cl      
  31 Cl31           1.0844    -5.7348    -4.4025 Cl      
  32 H32           -0.9606     1.9075    -0.0539 H       
  33 H33           -0.9294    -0.5504    -0.0619 H       
  34 H34            5.6921    -0.6430    -0.0193 H       
  35 H35            7.1957     3.6986     0.0144 H       
  36 H36            4.5134    -2.5171     0.3839 H       
  37 H37            2.7418    -2.4920     0.5545 H       
  38 H38            1.0591    -3.2304    -3.6260 H       
  39 H39            5.3004    -3.6970    -4.0635 H       
  40 H40            5.5506    -2.8778    -1.7321 H       
  41 H41            1.1599    -6.2076    -7.2389 H       
  42 H42            4.3861    -2.6672    -6.2597 H       
@<TRIPOS>BOND
   1    1    2 ar
   2    1    6 ar
   3    1   32 1
   4    2    3 ar
   5    2   33 1
   6    3    4 ar
   7    3   23 1
   8    4    5 ar
   9    4    7 1
  10    5    6 ar
  11    5   10 1
  12    6   24 1
  13    7    8 1
  14    7   15 1
  15    8    9 2
  16    8   34 1
  17    9   10 1
  18    9   12 1
  19   10   11 2
  20   12   13 1
  21   12   14 2
  22   13   35 1
  23   15   16 1
  24   15   36 1
  25   15   37 1
  26   16   17 ar
  27   16   21 ar
  28   17   18 ar
  29   18   19 ar
  30   18   38 1
  31   19   20 ar
  32   19   22 1
  33   20   21 ar
  34   20   39 1
  35   21   40 1
  36   22   25 ar
  37   22   29 ar
  38   25   26 ar
  39   25   31 1
  40   26   27 ar
  41   26   41 1
  42   27   28 ar
  43   27   30 1
  44   28   29 ar
  45   29   42 1

#	End of record

