#	Name: ASD01180145
#	Creating user name:	WinNT
#	Creation time:	15. 06. 2019 19:06

#	Modifying user name:	WinNT
#	Modification time:	15. 06. 2019 19:06

#	Program:	/corina/corina34_cracker 3.40 0067  02.08.2006

@<TRIPOS>MOLECULE
ASD01180145
  51   54    0    0    0
SMALL
NO_CHARGES


@<TRIPOS>ATOM
   1 C1             0.4622     1.2461     0.3022 C.2     
   2 C2             0.3840    -0.2257     0.2018 C.ar    
   3 C3             1.5489    -0.9814     0.0546 C.ar    
   4 C4             1.4687    -2.3554    -0.0381 C.ar    
   5 C5             0.2376    -2.9848     0.0140 C.ar    
   6 C6            -0.9207    -2.2420     0.1593 C.ar    
   7 C7            -0.8545    -0.8677     0.2594 C.ar    
   8 O8             1.5415     1.8015     0.2568 O.2     
   9 O9            -0.6640     1.9726     0.4385 O.3     
  10 C10            0.1579    -4.4862    -0.0884 C.3     
  11 N11           -0.8512    -4.9867     0.8484 N.pl3   
  12 N12            1.1212    -5.1207     3.8932 N.ar    
  13 C13            0.7675    -4.8982     2.6518 C.ar    
  14 C14           -0.5058    -5.2377     2.1790 C.ar    
  15 C15           -1.4193    -5.8219     3.0354 C.ar    
  16 C16           -1.0240    -6.0537     4.3653 C.ar    
  17 C17           -1.8984    -6.6432     5.2932 C.ar    
  18 C18           -1.4822    -6.8522     6.5721 C.ar    
  19 C19           -0.1966    -6.4876     6.9743 C.ar    
  20 C20            0.6769    -5.9135     6.0993 C.ar    
  21 C21            0.2828    -5.6825     4.7703 C.ar    
  22 F22            0.1881    -6.7067     8.2507 F       
  23 C23           -0.2305    -4.8802    -1.5148 C.3     
  24 C24           -0.4449    -6.3917    -1.6997 C.3     
  25 C25           -1.6426    -6.0327    -2.5950 C.3     
  26 C26           -1.7293    -4.7107    -1.8143 C.3     
  27 C27           -1.2734    -5.8511    -4.0687 C.3     
  28 C28           -2.8542    -6.9447    -2.3926 C.3     
  29 H29            2.5104    -0.4913     0.0131 H       
  30 H30            2.3689    -2.9411    -0.1519 H       
  31 H31           -1.8785    -2.7395     0.1985 H       
  32 H32           -1.7590    -0.2895     0.3776 H       
  33 H33           -0.5625     2.9323     0.5002 H       
  34 H34            1.1277    -4.9191     0.1568 H       
  35 H35           -1.7590    -5.1438     0.5450 H       
  36 H36            1.4759    -4.4422     1.9760 H       
  37 H37           -2.4075    -6.0923     2.6939 H       
  38 H38           -2.8959    -6.9287     4.9934 H       
  39 H39           -2.1554    -7.3055     7.2847 H       
  40 H40            1.6685    -5.6374     6.4262 H       
  41 H41            0.4196    -4.4360    -2.2685 H       
  42 H42            0.3668    -6.8857    -2.2337 H       
  43 H43           -0.7253    -6.9084    -0.7819 H       
  44 H44           -2.3609    -4.7678    -0.9277 H       
  45 H45           -1.9546    -3.8476    -2.4407 H       
  46 H46           -0.8461    -6.7773    -4.4530 H       
  47 H47           -2.1676    -5.5994    -4.6389 H       
  48 H48           -0.5435    -5.0472    -4.1640 H       
  49 H49           -3.1902    -6.8782    -1.3578 H       
  50 H50           -3.6596    -6.6316    -3.0570 H       
  51 H51           -2.5760    -7.9740    -2.6188 H       
@<TRIPOS>BOND
   1    1    2 1
   2    1    8 2
   3    1    9 1
   4    2    3 ar
   5    2    7 ar
   6    3    4 ar
   7    3   29 1
   8    4    5 ar
   9    4   30 1
  10    5    6 ar
  11    5   10 1
  12    6    7 ar
  13    6   31 1
  14    7   32 1
  15    9   33 1
  16   10   11 1
  17   10   23 1
  18   10   34 1
  19   11   14 1
  20   11   35 1
  21   12   13 ar
  22   12   21 ar
  23   13   14 ar
  24   13   36 1
  25   14   15 ar
  26   15   16 ar
  27   15   37 1
  28   16   17 ar
  29   16   21 ar
  30   17   18 ar
  31   17   38 1
  32   18   19 ar
  33   18   39 1
  34   19   20 ar
  35   19   22 1
  36   20   21 ar
  37   20   40 1
  38   23   24 1
  39   23   26 1
  40   23   41 1
  41   24   25 1
  42   24   42 1
  43   24   43 1
  44   25   26 1
  45   25   27 1
  46   25   28 1
  47   26   44 1
  48   26   45 1
  49   27   46 1
  50   27   47 1
  51   27   48 1
  52   28   49 1
  53   28   50 1
  54   28   51 1

#	End of record

