#	Name: ASD01883605
#	Creating user name:	WinNT
#	Creation time:	15. 06. 2019 19:46

#	Modifying user name:	WinNT
#	Modification time:	15. 06. 2019 19:46

#	Program:	/corina/corina34_cracker 3.40 0067  02.08.2006

@<TRIPOS>MOLECULE
ASD01883605
  48   51    0    0    0
SMALL
NO_CHARGES


@<TRIPOS>ATOM
   1 C1            -0.6242     1.5048     0.4040 C.2     
   2 C2            -0.7464     0.1699     0.5588 C.2     
   3 N3             0.3111    -0.5886     0.9530 N.am    
   4 C4             1.5120    -0.0345     1.2014 C.2     
   5 C5             1.6935     1.3480     1.0560 C.2     
   6 C6             0.6193     2.1299     0.6539 C.2     
   7 O7             2.4459    -0.7376     1.5546 O.2     
   8 Cl8            3.2390     2.0717     1.3747 Cl      
   9 C9             0.7730     3.5926     0.4892 C.ar    
  10 C10            0.2420     4.4649     1.4434 C.ar    
  11 C11            0.3886     5.8290     1.2853 C.ar    
  12 C12            1.0620     6.3324     0.1807 C.ar    
  13 C13            1.5909     5.4667    -0.7695 C.ar    
  14 C14            1.4537     4.1045    -0.6166 C.ar    
  15 O15            1.2041     7.6742     0.0278 O.3     
  16 C16            2.1293     8.3079     0.7915 C.ar    
  17 C17            2.2301     9.6922     0.7427 C.ar    
  18 C18            3.1779    10.3266     1.5271 C.ar    
  19 C19            3.9949     9.5495     2.3363 C.ar    
  20 C20            3.8391     8.1773     2.3348 C.ar    
  21 N21            2.9231     7.6016     1.5797 N.ar    
  22 C22            0.1398    -2.0350     1.1107 C.3     
  23 C23            0.4547    -2.7332    -0.2138 C.3     
  24 F24           -0.4138     3.9747     2.5181 F       
  25 C25            3.3198    11.8267     1.5026 C.3     
  26 C26            4.7226     7.3272     3.2109 C.3     
  27 C27            0.4474    -4.2632    -0.2250 C.3     
  28 C28           -0.6841    -3.4878    -0.9029 C.3     
  29 H29           -1.4721     2.0932     0.0859 H       
  30 H30           -1.6982    -0.3031     0.3670 H       
  31 H31           -0.0214     6.5047     2.0214 H       
  32 H32            2.1141     5.8627    -1.6273 H       
  33 H33            1.8654     3.4336    -1.3560 H       
  34 H34            1.5780    10.2661     0.1009 H       
  35 H35            4.7448    10.0129     2.9603 H       
  36 H36            0.8170    -2.3990     1.8833 H       
  37 H37           -0.8893    -2.2497     1.3989 H       
  38 H38            1.1820    -2.2287    -0.8499 H       
  39 H39            2.6705    12.2654     2.2603 H       
  40 H40            4.3550    12.0972     1.7105 H       
  41 H41            3.0365    12.2024     0.5195 H       
  42 H42            4.2523     7.1989     4.1858 H       
  43 H43            4.8656     6.3520     2.7454 H       
  44 H44            5.6891     7.8157     3.3352 H       
  45 H45            1.1696    -4.7652    -0.8688 H       
  46 H46            0.2183    -4.7723     0.7111 H       
  47 H47           -1.6576    -3.4868    -0.4126 H       
  48 H48           -0.7062    -3.4797    -1.9926 H       
@<TRIPOS>BOND
   1    1    2 2
   2    1    6 1
   3    1   29 1
   4    2    3 1
   5    2   30 1
   6    3    4 am
   7    3   22 1
   8    4    5 1
   9    4    7 2
  10    5    6 2
  11    5    8 1
  12    6    9 1
  13    9   10 ar
  14    9   14 ar
  15   10   11 ar
  16   10   24 1
  17   11   12 ar
  18   11   31 1
  19   12   13 ar
  20   12   15 1
  21   13   14 ar
  22   13   32 1
  23   14   33 1
  24   15   16 1
  25   16   17 ar
  26   16   21 ar
  27   17   18 ar
  28   17   34 1
  29   18   19 ar
  30   18   25 1
  31   19   20 ar
  32   19   35 1
  33   20   21 ar
  34   20   26 1
  35   22   23 1
  36   22   36 1
  37   22   37 1
  38   23   27 1
  39   23   28 1
  40   23   38 1
  41   25   39 1
  42   25   40 1
  43   25   41 1
  44   26   42 1
  45   26   43 1
  46   26   44 1
  47   27   28 1
  48   27   45 1
  49   27   46 1
  50   28   47 1
  51   28   48 1

#	End of record

