#	Name: ASD01870201
#	Creating user name:	WinNT
#	Creation time:	15. 06. 2019 19:38

#	Modifying user name:	WinNT
#	Modification time:	15. 06. 2019 19:38

#	Program:	/corina/corina34_cracker 3.40 0067  02.08.2006

@<TRIPOS>MOLECULE
ASD01870201
  59   63    0    0    0
SMALL
NO_CHARGES


@<TRIPOS>ATOM
   1 O1            -1.0010     2.8773    -1.3298 O.3     
   2 C2             5.2918     7.9947    -2.9924 C.ar    
   3 C3             4.6320     7.7029    -1.8005 C.ar    
   4 C4             4.5697     6.4275    -1.3272 C.ar    
   5 C5             5.1779     5.3870    -2.0475 C.ar    
   6 C6             5.8503     5.6835    -3.2618 C.ar    
   7 C7             5.8933     7.0128    -3.7182 C.ar    
   8 C8             5.1316     4.0583    -1.5872 C.ar    
   9 C9             5.7253     3.0679    -2.2993 C.ar    
  10 C10            6.3968     3.3462    -3.5061 C.ar    
  11 C11            6.4562     4.6470    -3.9803 C.ar    
  12 C12            7.1130     2.4730    -4.4567 C.2     
  13 N13            7.5988     3.1963    -5.4801 N.am    
  14 C14            7.2335     4.6022    -5.2717 C.3     
  15 C15            8.3641     2.6698    -6.6129 C.3     
  16 C16            8.0673     3.5040    -7.8607 C.3     
  17 C17            8.4663     4.9593    -7.6080 C.3     
  18 C18            9.9613     5.0306    -7.2906 C.3     
  19 C19           10.2581     4.1964    -6.0428 C.3     
  20 C20            9.8592     2.7411    -6.2955 C.3     
  21 C21            4.4205     3.7343    -0.2987 C.3     
  22 C22            2.9511     3.5398    -0.5710 C.ar    
  23 C23            2.4594     2.2887    -0.8850 C.ar    
  24 N24            1.1746     2.1077    -1.1257 N.ar    
  25 C25            0.3115     3.1085    -1.0757 C.ar    
  26 C26            0.7361     4.3945    -0.7659 C.ar    
  27 C27            2.0766     4.6159    -0.5032 C.ar    
  28 O28            7.2451     1.2711    -4.3316 O.2     
  29 O29            6.6710     3.4375    -8.1571 O.3     
  30 C30           -1.3743     1.5338    -1.6426 C.3     
  31 C31           -2.8817     1.4694    -1.8966 C.3     
  32 F32           -3.2102     2.3063    -2.9684 F       
  33 F33           -3.2472     0.1541    -2.2029 F       
  34 F34           -3.5660     1.8887    -0.7507 F       
  35 H35            5.3230     9.0141    -3.3476 H       
  36 H36            4.1628     8.5004    -1.2434 H       
  37 H37            4.0551     6.2173    -0.4013 H       
  38 H38            6.4009     7.2536    -4.6406 H       
  39 H39            5.6830     2.0519    -1.9356 H       
  40 H40            6.6124     4.9542    -6.0954 H       
  41 H41            8.1314     5.2147    -5.1903 H       
  42 H42            8.0799     1.6331    -6.7929 H       
  43 H43            8.6368     3.1123    -8.7035 H       
  44 H44            8.2548     5.5536    -8.4970 H       
  45 H45            7.8968     5.3511    -6.7652 H       
  46 H46           10.5307     4.6389    -8.1335 H       
  47 H47           10.2455     6.0674    -7.1106 H       
  48 H48           11.3232     4.2472    -5.8167 H       
  49 H49            9.6886     4.5881    -5.2000 H       
  50 H50           10.0706     2.1468    -5.4066 H       
  51 H51           10.4286     2.3494    -7.1384 H       
  52 H52            4.8356     2.8200     0.1254 H       
  53 H53            4.5539     4.5549     0.4062 H       
  54 H54            3.1349     1.4475    -0.9350 H       
  55 H55            0.0288     5.2097    -0.7265 H       
  56 H56            2.4356     5.6049    -0.2595 H       
  57 H57            6.4101     3.9446    -8.9381 H       
  58 H58           -0.8411     1.2071    -2.5354 H       
  59 H59           -1.1183     0.8817    -0.8076 H       
@<TRIPOS>BOND
   1    1   30 1
   2    1   25 1
   3    2    3 ar
   4    2    7 ar
   5    2   35 1
   6    3    4 ar
   7    3   36 1
   8    4    5 ar
   9    4   37 1
  10    5    6 ar
  11    5    8 ar
  12    6    7 ar
  13    6   11 ar
  14    7   38 1
  15    8    9 ar
  16    8   21 1
  17    9   10 ar
  18    9   39 1
  19   10   11 ar
  20   10   12 1
  21   11   14 1
  22   12   13 am
  23   12   28 2
  24   13   14 1
  25   13   15 1
  26   14   40 1
  27   14   41 1
  28   15   16 1
  29   15   20 1
  30   15   42 1
  31   16   17 1
  32   16   29 1
  33   16   43 1
  34   17   18 1
  35   17   44 1
  36   17   45 1
  37   18   19 1
  38   18   46 1
  39   18   47 1
  40   19   20 1
  41   19   48 1
  42   19   49 1
  43   20   50 1
  44   20   51 1
  45   21   22 1
  46   21   52 1
  47   21   53 1
  48   22   23 ar
  49   22   27 ar
  50   23   24 ar
  51   23   54 1
  52   24   25 ar
  53   25   26 ar
  54   26   27 ar
  55   26   55 1
  56   27   56 1
  57   29   57 1
  58   30   31 1
  59   30   58 1
  60   30   59 1
  61   31   32 1
  62   31   33 1
  63   31   34 1

#	End of record

