#	Name: ASD01100015
#	Creating user name:	WinNT
#	Creation time:	15. 06. 2019 18:58

#	Modifying user name:	WinNT
#	Modification time:	15. 06. 2019 18:58

#	Program:	/corina/corina34_cracker 3.40 0067  02.08.2006

@<TRIPOS>MOLECULE
ASD01100015
  40   40    0    0    0
SMALL
NO_CHARGES


@<TRIPOS>ATOM
   1 C1             0.1638     1.2851    -0.9174 C.ar    
   2 C2             0.2452    -0.0941    -0.9896 C.ar    
   3 C3             1.4483    -0.7296    -0.7392 C.ar    
   4 C4             2.5682     0.0136    -0.4172 C.ar    
   5 C5             2.4864     1.3917    -0.3452 C.ar    
   6 C6             1.2845     2.0273    -0.5953 C.ar    
   7 C7             3.7077     2.2014     0.0064 C.3     
   8 C8             3.4393     3.0012     1.2828 C.3     
   9 C9             3.2251     2.0383     2.4524 C.3     
  10 C10            4.6372     3.9055     1.5795 C.3     
  11 Cl11          -1.1621    -1.0270    -1.3936 Cl      
  12 C12            4.0248     3.1483    -1.1223 C.2     
  13 N13            5.1758     3.8493    -1.1106 N.am    
  14 O14            3.2442     3.2795    -2.0412 O.2     
  15 C15            5.4466     4.8305    -2.1642 C.3     
  16 C16            4.3586     5.9061    -2.1513 C.3     
  17 C17            6.8095     5.4807    -1.9176 C.3     
  18 C18            5.4546     4.1295    -3.5242 C.3     
  19 H19           -0.7740     1.7821    -1.1171 H       
  20 H20            1.5123    -1.8063    -0.7951 H       
  21 H21            3.5074    -0.4824    -0.2214 H       
  22 H22            1.2211     3.1039    -0.5389 H       
  23 H23            4.5530     1.5325     0.1678 H       
  24 H24            2.5471     3.6126     1.1476 H       
  25 H25            4.1173     1.4268     2.5877 H       
  26 H26            3.0339     2.6081     3.3618 H       
  27 H27            2.3717     1.3940     2.2411 H       
  28 H28            4.8528     4.5210     0.7062 H       
  29 H29            4.4057     4.5482     2.4288 H       
  30 H30            5.5065     3.2915     1.8148 H       
  31 H31            5.8249     3.7042    -0.4046 H       
  32 H32            4.3529     6.4056    -1.1825 H       
  33 H33            4.5601     6.6362    -2.9352 H       
  34 H34            3.3877     5.4429    -2.3270 H       
  35 H35            7.5846     4.7144    -1.9268 H       
  36 H36            7.0109     6.2107    -2.7016 H       
  37 H37            6.8038     5.9801    -0.9488 H       
  38 H38            4.4836     3.6663    -3.6998 H       
  39 H39            5.6560     4.8595    -4.3081 H       
  40 H40            6.2297     3.3632    -3.5334 H       
@<TRIPOS>BOND
   1    1    2 ar
   2    1    6 ar
   3    1   19 1
   4    2    3 ar
   5    2   11 1
   6    3    4 ar
   7    3   20 1
   8    4    5 ar
   9    4   21 1
  10    5    6 ar
  11    5    7 1
  12    6   22 1
  13    7    8 1
  14    7   12 1
  15    7   23 1
  16    8    9 1
  17    8   10 1
  18    8   24 1
  19    9   25 1
  20    9   26 1
  21    9   27 1
  22   10   28 1
  23   10   29 1
  24   10   30 1
  25   12   13 am
  26   12   14 2
  27   13   15 1
  28   13   31 1
  29   15   16 1
  30   15   17 1
  31   15   18 1
  32   16   32 1
  33   16   33 1
  34   16   34 1
  35   17   35 1
  36   17   36 1
  37   17   37 1
  38   18   38 1
  39   18   39 1
  40   18   40 1

#	End of record

