#	Name: ASD02038412
#	Creating user name:	WinNT
#	Creation time:	15. 06. 2019 20:16

#	Modifying user name:	WinNT
#	Modification time:	15. 06. 2019 20:16

#	Program:	/corina/corina34_cracker 3.40 0067  02.08.2006

@<TRIPOS>MOLECULE
ASD02038412
  51   52    0    0    0
SMALL
NO_CHARGES


@<TRIPOS>ATOM
   1 C1             0.5153     1.9198    -0.7648 C.ar    
   2 C2             0.4773     0.5440    -0.6220 C.ar    
   3 C3             1.7299     2.5709    -0.9002 C.ar    
   4 C4             2.9076     1.8471    -0.8934 C.ar    
   5 C5             2.8712     0.4664    -0.7502 C.ar    
   6 C6             1.6511    -0.1836    -0.6137 C.ar    
   7 N7             4.0601    -0.2680    -0.7430 N.pl3   
   8 Cl8           -0.9627     2.8304    -0.7815 Cl      
   9 Cl9            1.7736     4.2972    -1.0791 Cl      
  10 N10            5.4063    -3.7397    -0.4651 N.3     
  11 C11            5.4461    -2.2790    -0.6166 C.3     
  12 C12            4.0203    -1.7246    -0.5919 C.3     
  13 C13            6.7607    -4.3081    -0.4842 C.3     
  14 C14            6.6785    -5.8275    -0.3243 C.3     
  15 C15            8.0892    -6.4195    -0.3443 C.3     
  16 O16            6.0474    -6.1421     0.9186 O.3     
  17 O17            8.0077    -7.8458    -0.3121 O.3     
  18 C18            9.1820    -8.5317    -0.3246 C.ar    
  19 C19            9.1750    -9.9184    -0.2950 C.ar    
  20 C20           10.3670   -10.6158    -0.3082 C.ar    
  21 C21           11.5727    -9.9284    -0.3511 C.ar    
  22 C22           11.5788    -8.5401    -0.3807 C.ar    
  23 C23           10.3857    -7.8444    -0.3728 C.ar    
  24 N24           12.7810   -10.6342    -0.3640 N.am    
  25 S25           13.7145   -10.7027     1.0021 S.o2    
  26 O26           14.8276   -11.5020     0.6262 O.2     
  27 O27           13.8830    -9.3433     1.3800 O.2     
  28 C28           12.6831   -11.5766     2.2118 C.3     
  29 H29           -0.4713     0.0386    -0.5166 H       
  30 H30            3.8548     2.3548    -0.9997 H       
  31 H31            1.6204    -1.2573    -0.5019 H       
  32 H32            4.9116     0.1867    -0.8381 H       
  33 H33            4.9157    -4.0026     0.3765 H       
  34 H34            6.0192    -1.8443     0.2023 H       
  35 H35            5.9184    -2.0249    -1.5655 H       
  36 H36            3.5481    -1.9787     0.3571 H       
  37 H37            3.4472    -2.1594    -1.4108 H       
  38 H38            7.2421    -4.0680    -1.4323 H       
  39 H39            7.3430    -3.8874     0.3356 H       
  40 H40            6.0963    -6.2481    -1.1442 H       
  41 H41            8.6022    -6.1053    -1.2532 H       
  42 H42            8.6433    -6.0675     0.5259 H       
  43 H43            6.5122    -5.7983     1.6938 H       
  44 H44            8.2371   -10.4529    -0.2613 H       
  45 H45           10.3614   -11.6956    -0.2848 H       
  46 H46           12.5161    -8.0046    -0.4140 H       
  47 H47           10.3902    -6.7646    -0.3962 H       
  48 H48           13.0717   -11.0833    -1.1731 H       
  49 H49           12.3678   -12.5337     1.7964 H       
  50 H50           13.2569   -11.7471     3.1227 H       
  51 H51           11.8048   -10.9739     2.4431 H       
@<TRIPOS>BOND
   1    1    2 ar
   2    1    3 ar
   3    1    8 1
   4    2    6 ar
   5    2   29 1
   6    3    4 ar
   7    3    9 1
   8    4    5 ar
   9    4   30 1
  10    5    6 ar
  11    5    7 1
  12    6   31 1
  13    7   12 1
  14    7   32 1
  15   10   11 1
  16   10   13 1
  17   10   33 1
  18   11   12 1
  19   11   34 1
  20   11   35 1
  21   12   36 1
  22   12   37 1
  23   13   14 1
  24   13   38 1
  25   13   39 1
  26   14   16 1
  27   14   15 1
  28   14   40 1
  29   15   17 1
  30   15   41 1
  31   15   42 1
  32   16   43 1
  33   17   18 1
  34   18   19 ar
  35   18   23 ar
  36   19   20 ar
  37   19   44 1
  38   20   21 ar
  39   20   45 1
  40   21   22 ar
  41   21   24 1
  42   22   23 ar
  43   22   46 1
  44   23   47 1
  45   24   25 am
  46   24   48 1
  47   25   26 2
  48   25   27 2
  49   25   28 1
  50   28   49 1
  51   28   50 1
  52   28   51 1

#	End of record

