#	Name: ASD02560235
#	Creating user name:	WinNT
#	Creation time:	15. 06. 2019 20:24

#	Modifying user name:	WinNT
#	Modification time:	15. 06. 2019 20:24

#	Program:	/corina/corina34_cracker 3.40 0067  02.08.2006

@<TRIPOS>MOLECULE
ASD02560235
  33   35    0    0    0
SMALL
NO_CHARGES


@<TRIPOS>ATOM
   1 N1             0.0161     1.2842     0.2860 N.2     
   2 N2             0.0215     0.0007     0.1974 N.2     
   3 C3             1.2578    -0.4215     0.0925 C.2     
   4 O4             2.0539     0.6635     0.1184 O.3     
   5 C5             1.2381     1.7285     0.2416 C.2     
   6 C6             1.6636     3.1723     0.3144 C.3     
   7 N7             1.6684    -1.7379    -0.0225 N.pl3   
   8 C8             0.7386    -2.7696     0.0862 C.ar    
   9 C9            -0.3910    -2.6051     0.8823 C.ar    
  10 C10           -1.3118    -3.6225     0.9920 C.ar    
  11 C11           -1.1113    -4.8219     0.3023 C.ar    
  12 C12            0.0244    -4.9836    -0.4969 C.ar    
  13 C13            0.9386    -3.9603    -0.6060 C.ar    
  14 C14            1.8926     3.5566     1.7535 C.ar    
  15 C15            3.1445     3.3998     2.3207 C.ar    
  16 C16            3.3541     3.7527     3.6420 C.ar    
  17 C17            2.3130     4.2619     4.3952 C.ar    
  18 C18            1.0618     4.4184     3.8291 C.ar    
  19 C19            0.8525     4.0716     2.5061 C.ar    
  20 Cl20          -0.7191     4.2682     1.7952 Cl      
  21 Cl21           4.4521     2.7597     1.3751 Cl      
  22 C22           -2.0668    -5.8826     0.4144 C.1     
  23 N23           -2.8249    -6.7240     0.5034 N.1     
  24 H24            2.5867     3.3079    -0.2492 H       
  25 H25            0.8827     3.8031    -0.1103 H       
  26 H26            2.6036    -1.9424    -0.1789 H       
  27 H27           -0.5453    -1.6783     1.4149 H       
  28 H28           -2.1878    -3.4944     1.6105 H       
  29 H29            0.1822    -5.9089    -1.0311 H       
  30 H30            1.8162    -4.0846    -1.2232 H       
  31 H31            4.3314     3.6300     4.0851 H       
  32 H32            2.4771     4.5373     5.4265 H       
  33 H33            0.2485     4.8157     4.4182 H       
@<TRIPOS>BOND
   1    1    2 1
   2    1    5 2
   3    2    3 2
   4    3    4 1
   5    3    7 1
   6    4    5 1
   7    5    6 1
   8    6   14 1
   9    6   24 1
  10    6   25 1
  11    7    8 1
  12    7   26 1
  13    8    9 ar
  14    8   13 ar
  15    9   10 ar
  16    9   27 1
  17   10   11 ar
  18   10   28 1
  19   11   12 ar
  20   11   22 1
  21   12   13 ar
  22   12   29 1
  23   13   30 1
  24   14   15 ar
  25   14   19 ar
  26   15   16 ar
  27   15   21 1
  28   16   17 ar
  29   16   31 1
  30   17   18 ar
  31   17   32 1
  32   18   19 ar
  33   18   33 1
  34   19   20 1
  35   22   23 3

#	End of record

