#	Name: ASD03331142
#	Creating user name:	WinNT
#	Creation time:	15. 06. 2019 20:38

#	Modifying user name:	WinNT
#	Modification time:	15. 06. 2019 20:38

#	Program:	/corina/corina34_cracker 3.40 0067  02.08.2006

@<TRIPOS>MOLECULE
ASD03331142
  48   51    0    0    0
SMALL
NO_CHARGES


@<TRIPOS>ATOM
   1 N1            -0.0459     1.4956     0.5698 N.am    
   2 C2             0.0019     0.1506     1.1632 C.3     
   3 C3             0.5966    -0.8151     0.1327 C.3     
   4 N4             1.8894    -0.2950    -0.3322 N.3     
   5 C5             1.7288     0.9911    -1.0237 C.3     
   6 C6             1.1805     2.0309    -0.0406 C.3     
   7 C7            -1.1849     2.2161     0.5803 C.2     
   8 O8            -2.2139     1.7207     0.9974 O.2     
   9 N9            -1.1831     3.4859     0.1284 N.am    
  10 C10           -2.3851     4.1963     0.0330 C.ar    
  11 C11           -2.4015     5.5681     0.2481 C.ar    
  12 C12           -3.5892     6.2664     0.1527 C.ar    
  13 C13           -4.7613     5.6010    -0.1566 C.ar    
  14 C14           -4.7483     4.2350    -0.3714 C.ar    
  15 C15           -3.5629     3.5318    -0.2826 C.ar    
  16 C16            2.5723    -1.2724    -1.1902 C.3     
  17 N17            3.5947     0.0555    -2.9520 N.ar    
  18 C18            3.7648    -0.6215    -1.8425 C.ar    
  19 C19            5.0188    -0.7550    -1.2499 C.ar    
  20 C20            6.1109    -0.1721    -1.8267 C.ar    
  21 C21            5.9245     0.5538    -3.0184 C.ar    
  22 C22            6.9994     1.1808    -3.6684 C.ar    
  23 C23            6.7780     1.8741    -4.8193 C.ar    
  24 C24            5.4980     1.9703    -5.3608 C.ar    
  25 C25            4.4334     1.3750    -4.7570 C.ar    
  26 C26            4.6217     0.6500    -3.5677 C.ar    
  27 H27            0.6285     0.1659     2.0549 H       
  28 H28           -1.0063    -0.1697     1.4260 H       
  29 H29            0.7419    -1.7929     0.5920 H       
  30 H30           -0.0837    -0.9080    -0.7138 H       
  31 H31            2.6951     1.3233    -1.4030 H       
  32 H32            1.0326     0.8731    -1.8541 H       
  33 H33            0.9515     2.9537    -0.5736 H       
  34 H34            1.9203     2.2269     0.7355 H       
  35 H35           -0.3488     3.9073    -0.1307 H       
  36 H36           -1.4865     6.0883     0.4900 H       
  37 H37           -3.6027     7.3332     0.3202 H       
  38 H38           -5.6889     6.1492    -0.2303 H       
  39 H39           -5.6653     3.7181    -0.6128 H       
  40 H40           -3.5526     2.4657    -0.4549 H       
  41 H41            2.9044    -2.1167    -0.5862 H       
  42 H42            1.8845    -1.6240    -1.9592 H       
  43 H43            5.1270    -1.3187    -0.3350 H       
  44 H44            7.0901    -0.2651    -1.3808 H       
  45 H45            7.9961     1.1139    -3.2578 H       
  46 H46            7.6055     2.3561    -5.3186 H       
  47 H47            5.3481     2.5266    -6.2743 H       
  48 H48            3.4475     1.4597    -5.1899 H       
@<TRIPOS>BOND
   1    1    2 1
   2    1    6 1
   3    1    7 am
   4    2    3 1
   5    2   27 1
   6    2   28 1
   7    3    4 1
   8    3   29 1
   9    3   30 1
  10    4    5 1
  11    4   16 1
  12    5    6 1
  13    5   31 1
  14    5   32 1
  15    6   33 1
  16    6   34 1
  17    7    8 2
  18    7    9 am
  19    9   10 1
  20    9   35 1
  21   10   11 ar
  22   10   15 ar
  23   11   12 ar
  24   11   36 1
  25   12   13 ar
  26   12   37 1
  27   13   14 ar
  28   13   38 1
  29   14   15 ar
  30   14   39 1
  31   15   40 1
  32   16   18 1
  33   16   41 1
  34   16   42 1
  35   17   18 ar
  36   17   26 ar
  37   18   19 ar
  38   19   20 ar
  39   19   43 1
  40   20   21 ar
  41   20   44 1
  42   21   22 ar
  43   21   26 ar
  44   22   23 ar
  45   22   45 1
  46   23   24 ar
  47   23   46 1
  48   24   25 ar
  49   24   47 1
  50   25   26 ar
  51   25   48 1

#	End of record

