#	Name: ASD02500092
#	Creating user name:	WinNT
#	Creation time:	15. 06. 2019 20:22

#	Modifying user name:	WinNT
#	Modification time:	15. 06. 2019 20:22

#	Program:	/corina/corina34_cracker 3.40 0067  02.08.2006

@<TRIPOS>MOLECULE
ASD02500092
  66   70    0    0    0
SMALL
NO_CHARGES


@<TRIPOS>ATOM
   1 N1            -3.6053     5.5550     0.1076 N.ar    
   2 C2            -4.7325     6.1887    -0.1071 C.ar    
   3 C3            -5.8610     5.9643     0.6788 C.ar    
   4 C4            -5.8096     5.0633     1.7039 C.ar    
   5 C5            -4.5975     4.3842     1.9311 C.ar    
   6 C6            -4.4688     3.4445     2.9662 C.ar    
   7 C7            -3.2793     2.8089     3.1539 C.ar    
   8 C8            -2.1870     3.0790     2.3324 C.ar    
   9 C9            -2.2766     3.9840     1.3197 C.ar    
  10 C10           -3.4878     4.6606     1.0942 C.ar    
  11 S11           -0.8793     4.3069     0.2961 S.o2    
  12 O12           -0.7294     5.7194     0.2556 O.2     
  13 O13            0.1490     3.4284     0.7319 O.2     
  14 N14           -1.2777     3.8348    -1.2404 N.am    
  15 C15           -1.4720     2.4853    -1.5260 C.ar    
  16 C16           -1.1253     1.9815    -2.7814 C.ar    
  17 C17           -1.3175     0.6448    -3.0650 C.ar    
  18 C18           -1.8596    -0.2025    -2.0934 C.ar    
  19 C19           -2.2046     0.3073    -0.8392 C.ar    
  20 C20           -2.0055     1.6412    -0.5589 C.ar    
  21 O21           -0.5987     2.8082    -3.7244 O.3     
  22 C22           -0.2672     2.2250    -4.9862 C.3     
  23 C23           -2.0673    -1.6321    -2.3925 C.2     
  24 O24           -2.4845    -1.9707    -3.4833 O.2     
  25 N25           -1.7946    -2.5629    -1.4567 N.am    
  26 C26           -1.9072    -3.9970    -1.7630 C.3     
  27 C27           -0.6052    -4.6880    -1.3441 C.3     
  28 N28           -0.3183    -4.3739     0.0619 N.3     
  29 C29           -0.0953    -2.9343     0.2515 C.3     
  30 C30           -1.3705    -2.1715    -0.1038 C.3     
  31 C31            0.7723    -5.1162     0.5292 C.ar    
  32 C32            0.6782    -6.5022     0.6397 C.ar    
  33 C33            1.7605    -7.2315     1.1022 C.ar    
  34 C34            2.9315    -6.5846     1.4538 C.ar    
  35 C35            3.0256    -5.2100     1.3450 C.ar    
  36 C36            1.9515    -4.4750     0.8782 C.ar    
  37 O37           -0.4741    -7.1369     0.2944 O.3     
  38 C38           -0.4983    -8.5589     0.4336 C.3     
  39 H39           -4.7878     6.9041    -0.9142 H       
  40 H40           -6.7754     6.5026     0.4776 H       
  41 H41           -6.6746     4.8772     2.3231 H       
  42 H42           -5.3083     3.2272     3.6100 H       
  43 H43           -3.1812     2.0861     3.9504 H       
  44 H44           -1.2540     2.5622     2.5021 H       
  45 H45           -1.3757     4.4979    -1.9415 H       
  46 H46           -1.0502     0.2538    -4.0356 H       
  47 H47           -2.6236    -0.3455    -0.0878 H       
  48 H48           -2.2685     2.0330     0.4125 H       
  49 H49            0.4732     1.4386    -4.8397 H       
  50 H50           -1.1641     1.8002    -5.4370 H       
  51 H51            0.1422     2.9914    -5.6443 H       
  52 H52           -2.7433    -4.4250    -1.2099 H       
  53 H53           -2.0653    -4.1315    -2.8331 H       
  54 H54           -0.7117    -5.7664    -1.4615 H       
  55 H55            0.2130    -4.3326    -1.9705 H       
  56 H56            0.1680    -2.7409     1.2914 H       
  57 H57            0.7158    -2.6034    -0.3971 H       
  58 H58           -1.1739    -1.0997    -0.0774 H       
  59 H59           -2.1540    -2.4207     0.6119 H       
  60 H60            1.6903    -8.3058     1.1887 H       
  61 H61            3.7745    -7.1552     1.8147 H       
  62 H62            3.9417    -4.7092     1.6214 H       
  63 H63            2.0292    -3.4014     0.7899 H       
  64 H64            0.2774    -8.9986    -0.1934 H       
  65 H65           -0.3179    -8.8252     1.4751 H       
  66 H66           -1.4727    -8.9376     0.1252 H       
@<TRIPOS>BOND
   1    1    2 ar
   2    1   10 ar
   3    2    3 ar
   4    2   39 1
   5    3    4 ar
   6    3   40 1
   7    4    5 ar
   8    4   41 1
   9    5    6 ar
  10    5   10 ar
  11    6    7 ar
  12    6   42 1
  13    7    8 ar
  14    7   43 1
  15    8    9 ar
  16    8   44 1
  17    9   10 ar
  18    9   11 1
  19   11   12 2
  20   11   13 2
  21   11   14 am
  22   14   15 1
  23   14   45 1
  24   15   16 ar
  25   15   20 ar
  26   16   17 ar
  27   16   21 1
  28   17   18 ar
  29   17   46 1
  30   18   19 ar
  31   18   23 1
  32   19   20 ar
  33   19   47 1
  34   20   48 1
  35   21   22 1
  36   22   49 1
  37   22   50 1
  38   22   51 1
  39   23   24 2
  40   23   25 am
  41   25   26 1
  42   25   30 1
  43   26   27 1
  44   26   52 1
  45   26   53 1
  46   27   28 1
  47   27   54 1
  48   27   55 1
  49   28   29 1
  50   28   31 1
  51   29   30 1
  52   29   56 1
  53   29   57 1
  54   30   58 1
  55   30   59 1
  56   31   32 ar
  57   31   36 ar
  58   32   33 ar
  59   32   37 1
  60   33   34 ar
  61   33   60 1
  62   34   35 ar
  63   34   61 1
  64   35   36 ar
  65   35   62 1
  66   36   63 1
  67   37   38 1
  68   38   64 1
  69   38   65 1
  70   38   66 1

#	End of record

