#	Name: ASD05490148
#	Creating user name:	WinNT
#	Creation time:	15. 06. 2019 21:01

#	Modifying user name:	WinNT
#	Modification time:	15. 06. 2019 21:01

#	Program:	/corina/corina34_cracker 3.40 0067  02.08.2006

@<TRIPOS>MOLECULE
ASD05490148
  36   37    0    0    0
SMALL
NO_CHARGES


@<TRIPOS>ATOM
   1 N1             0.0537     1.2409     0.1919 N.ar    
   2 C2             1.1519     1.9738     0.1609 C.ar    
   3 C3             2.3964     1.3805     0.0794 C.ar    
   4 C4             2.4824    -0.0094     0.0299 C.ar    
   5 C5             1.3000    -0.7467     0.0649 C.ar    
   6 C6             0.0945    -0.0787     0.1469 C.ar    
   7 Cl7            1.0296     3.7044     0.2227 Cl      
   8 Cl8           -1.3859    -0.9842     0.1919 Cl      
   9 N9             3.7210    -0.6471    -0.0532 N.am    
  10 C10            4.2467    -1.0593    -1.3570 C.3     
  11 C11            5.0040     0.0859    -1.9782 C.ar    
  12 C12            6.3675     0.2062    -1.7907 C.ar    
  13 C13            4.3417     1.0290    -2.7500 C.ar    
  14 N14            7.0376     1.2055    -2.3310 N.ar    
  15 C15            6.4403     2.1236    -3.0666 C.ar    
  16 C16            5.0782     2.0650    -3.3021 C.ar    
  17 Br17           7.4584     3.5318    -3.8125 Br      
  18 C18            4.4336    -0.8836     1.0661 C.2     
  19 O19            5.5120    -1.4388     0.9937 O.2     
  20 O20            3.9505    -0.5048     2.2643 O.3     
  21 C21            4.0636    -0.2917     4.6876 C.3     
  22 C22            4.7718    -0.7917     3.4269 C.3     
  23 N23            1.3363    -2.2256     0.0150 N.pl3   
  24 O24            1.4846    -2.8661     1.0403 O.2     
  25 O25            1.2177    -2.8020    -1.0514 O.2     
  26 H26            3.2906     1.9856     0.0541 H       
  27 H27            4.9163    -1.9094    -1.2265 H       
  28 H28            3.4204    -1.3443    -2.0083 H       
  29 H29            6.8908    -0.5266    -1.1944 H       
  30 H30            3.2770     0.9576    -2.9171 H       
  31 H31            4.5946     2.8190    -3.9053 H       
  32 H32            3.9038     0.7839     4.6121 H       
  33 H33            3.1024    -0.7956     4.7885 H       
  34 H34            4.6802    -0.5070     5.5603 H       
  35 H35            4.9316    -1.8673     3.5023 H       
  36 H36            5.7330    -0.2877     3.3260 H       
@<TRIPOS>BOND
   1    1    2 ar
   2    1    6 ar
   3    2    3 ar
   4    2    7 1
   5    3    4 ar
   6    3   26 1
   7    4    5 ar
   8    4    9 1
   9    5    6 ar
  10    5   23 1
  11    6    8 1
  12    9   10 1
  13    9   18 am
  14   10   11 1
  15   10   27 1
  16   10   28 1
  17   11   12 ar
  18   11   13 ar
  19   12   14 ar
  20   12   29 1
  21   13   16 ar
  22   13   30 1
  23   14   15 ar
  24   15   16 ar
  25   15   17 1
  26   16   31 1
  27   18   19 2
  28   18   20 1
  29   20   22 1
  30   21   22 1
  31   21   32 1
  32   21   33 1
  33   21   34 1
  34   22   35 1
  35   22   36 1
  36   23   24 2
  37   23   25 2

#	End of record

