#	Name: ASD02030784
#	Creating user name:	WinNT
#	Creation time:	15. 06. 2019 20:16

#	Modifying user name:	WinNT
#	Modification time:	15. 06. 2019 20:16

#	Program:	/corina/corina34_cracker 3.40 0067  02.08.2006

@<TRIPOS>MOLECULE
ASD02030784
  75   78    0    0    0
SMALL
NO_CHARGES


@<TRIPOS>ATOM
   1 H1            -0.8240     1.0984    -1.0320 H       
   2 C2            -0.5907     2.1632    -1.0363 C.3     
   3 C3            -0.7100     2.7330    -2.4717 C.3     
   4 C4             0.7166     3.1907    -2.8813 C.3     
   5 C5             1.6208     2.3360    -1.9863 C.3     
   6 H6             1.6647     1.3127    -2.3590 H       
   7 C7             3.0159     2.8830    -1.7428 C.3     
   8 H8             2.9590     3.8863    -1.3206 H       
   9 C9             3.8021     2.8847    -3.0586 C.3     
  10 C10            5.2276     3.2642    -2.7818 C.2     
  11 C11            5.8049     3.0617    -1.6338 C.2     
  12 C12            7.2571     3.4798    -1.4756 C.3     
  13 C13            8.0447     2.2904    -0.9183 C.3     
  14 C14            8.0431     1.1531    -1.9418 C.3     
  15 O15            9.3905     2.6918    -0.6545 O.3     
  16 C16            7.3923     1.8097     0.3791 C.3     
  17 C17            5.9831     1.2913     0.0855 C.3     
  18 C18            5.1222     2.4372    -0.4535 C.3     
  19 C19            5.0007     3.4972     0.6431 C.3     
  20 C20            3.7223     1.9344    -0.7646 C.3     
  21 H21            3.8061     0.9549    -1.2355 H       
  22 C22            2.9349     1.7661     0.5318 C.3     
  23 C23            1.4843     1.3346     0.2657 C.3     
  24 C24            0.8631     2.3873    -0.6326 C.3     
  25 C25            1.0192     3.7726    -0.0022 C.3     
  26 C26           -1.5264     2.9138    -0.0865 C.3     
  27 H27           -1.2358     3.9635    -0.0446 H       
  28 C28           -1.4309     2.3020     1.3126 C.3     
  29 C29           -2.9652     2.8027    -0.5946 C.3     
  30 C30           -3.8834     3.6553     0.2835 C.3     
  31 C31           -5.3223     3.5442    -0.2246 C.3     
  32 C32           -6.2404     4.3968     0.6535 C.3     
  33 H33           -5.8675     5.4206     0.6825 H       
  34 O34           -6.2648     3.8611     1.9781 O.3     
  35 C35           -7.6559     4.3858     0.0728 C.3     
  36 F36           -8.1345     3.0717     0.0357 F       
  37 F37           -8.4955     5.1654     0.8757 F       
  38 F38           -7.6320     4.9102    -1.2239 F       
  39 H39           -1.0647     1.9596    -3.1530 H       
  40 H40           -1.3927     3.5826    -2.4815 H       
  41 H41            0.9028     2.9773    -3.9338 H       
  42 H42            0.8567     4.2510    -2.6709 H       
  43 H43            3.7699     1.8900    -3.5032 H       
  44 H44            3.3602     3.6060    -3.7459 H       
  45 H45            5.8005     3.7264    -3.5721 H       
  46 H46            7.6639     3.7676    -2.4450 H       
  47 H47            7.3239     4.3202    -0.7847 H       
  48 H48            8.5079     1.4956    -2.8663 H       
  49 H49            8.6036     0.3066    -1.5452 H       
  50 H50            7.0165     0.8468    -2.1430 H       
  51 H51            9.8664     3.0090    -1.4343 H       
  52 H52            7.9912     1.0078     0.8109 H       
  53 H53            7.3343     2.6386     1.0846 H       
  54 H54            6.0358     0.4956    -0.6575 H       
  55 H55            5.5398     0.9039     1.0028 H       
  56 H56            4.3011     4.2703     0.3253 H       
  57 H57            4.6367     3.0322     1.5593 H       
  58 H58            5.9778     3.9444     0.8260 H       
  59 H59            3.4227     1.0112     1.1483 H       
  60 H60            2.9304     2.7138     1.0702 H       
  61 H61            1.4706     0.3655    -0.2331 H       
  62 H62            0.9354     1.2774     1.2057 H       
  63 H63            0.4757     3.8054     0.9421 H       
  64 H64            2.0752     3.9723     0.1793 H       
  65 H65            0.6177     4.5271    -0.6788 H       
  66 H66           -0.4264     2.4537     1.7078 H       
  67 H67           -2.1561     2.7823     1.9695 H       
  68 H68           -1.6421     1.2341     1.2574 H       
  69 H69           -3.0154     3.1571    -1.6241 H       
  70 H70           -3.2861     1.7619    -0.5525 H       
  71 H71           -3.8333     3.3009     1.3131 H       
  72 H72           -3.5626     4.6962     0.2415 H       
  73 H73           -5.3724     3.8986    -1.2541 H       
  74 H74           -5.6431     2.5034    -0.1825 H       
  75 H75           -6.5868     2.9507     2.0283 H       
@<TRIPOS>BOND
   1    1    2 1
   2    2   24 1
   3    2    3 1
   4    2   26 1
   5    3    4 1
   6    3   39 1
   7    3   40 1
   8    4    5 1
   9    4   41 1
  10    4   42 1
  11    5   24 1
  12    5    6 1
  13    5    7 1
  14    7   20 1
  15    7    8 1
  16    7    9 1
  17    9   10 1
  18    9   43 1
  19    9   44 1
  20   10   11 2
  21   10   45 1
  22   11   18 1
  23   11   12 1
  24   12   13 1
  25   12   46 1
  26   12   47 1
  27   13   14 1
  28   13   15 1
  29   13   16 1
  30   14   48 1
  31   14   49 1
  32   14   50 1
  33   15   51 1
  34   16   17 1
  35   16   52 1
  36   16   53 1
  37   17   18 1
  38   17   54 1
  39   17   55 1
  40   18   19 1
  41   18   20 1
  42   19   56 1
  43   19   57 1
  44   19   58 1
  45   20   21 1
  46   20   22 1
  47   22   23 1
  48   22   59 1
  49   22   60 1
  50   23   24 1
  51   23   61 1
  52   23   62 1
  53   24   25 1
  54   25   63 1
  55   25   64 1
  56   25   65 1
  57   26   27 1
  58   26   28 1
  59   26   29 1
  60   28   66 1
  61   28   67 1
  62   28   68 1
  63   29   30 1
  64   29   69 1
  65   29   70 1
  66   30   31 1
  67   30   71 1
  68   30   72 1
  69   31   32 1
  70   31   73 1
  71   31   74 1
  72   32   33 1
  73   32   34 1
  74   32   35 1
  75   34   75 1
  76   35   36 1
  77   35   37 1
  78   35   38 1

#	End of record

