#	Name: ASD04590348
#	Creating user name:	WinNT
#	Creation time:	15. 06. 2019 20:50

#	Modifying user name:	WinNT
#	Modification time:	15. 06. 2019 20:50

#	Program:	/corina/corina34_cracker 3.40 0067  02.08.2006

@<TRIPOS>MOLECULE
ASD04590348
  58   63    0    0    0
SMALL
NO_CHARGES


@<TRIPOS>ATOM
   1 C1            -0.0167     1.3832     0.0096 C.ar    
   2 C2             0.0021    -0.0041     0.0020 C.ar    
   3 C3             1.1969    -0.6869    -0.0131 C.ar    
   4 C4             2.4020     0.0223    -0.0208 C.ar    
   5 C5             2.3769     1.4283    -0.0131 C.ar    
   6 C6             1.1624     2.0986     0.0022 C.ar    
   7 N7             3.7040    -0.3551    -0.0354 N.2     
   8 C8             4.4709     0.7083    -0.0370 C.2     
   9 N9             3.6969     1.8375    -0.0235 N.pl3   
  10 C10            5.9482     0.6906    -0.0508 C.2     
  11 C11            6.7657    -0.4631    -0.0648 C.2     
  12 C12            8.0579    -0.0539    -0.0751 C.2     
  13 N13            8.0646     1.3050    -0.0678 N.pl3   
  14 N14            6.7361     1.7480    -0.0580 N.2     
  15 N15            6.3188    -1.7944    -0.0677 N.am    
  16 C16            7.2108    -2.8046    -0.0817 C.2     
  17 C17            6.7414    -4.2032    -0.0847 C.ar    
  18 O18            8.4027    -2.5633    -0.0918 O.2     
  19 C19            7.6660    -5.2556    -0.0992 C.ar    
  20 C20            7.2132    -6.5696    -0.0985 C.ar    
  21 C21            5.8522    -6.8316    -0.0877 C.ar    
  22 C22            4.9382    -5.7913    -0.0752 C.ar    
  23 C23            5.3723    -4.4840    -0.0672 C.ar    
  24 C24           -1.2962    -0.7693     0.0109 C.3     
  25 N25           -1.7318    -1.0105    -1.3712 N.3     
  26 C26           -2.8604    -1.9518    -1.4111 C.3     
  27 C27           -0.6176    -1.4976    -2.1974 C.3     
  28 C28           -1.0996    -1.6784    -3.6392 C.3     
  29 O29           -2.2162    -2.5719    -3.6548 O.3     
  30 C30           -3.3198    -2.1280    -2.8609 C.3     
  31 O31            8.9951    -4.9766    -0.1183 O.3     
  32 C32            9.8818    -6.0404     0.2448 C.3     
  33 C33            9.4379    -7.3098    -0.4945 C.3     
  34 O34            8.0930    -7.6085    -0.1045 O.3     
  35 H35           -0.9614     1.9066     0.0170 H       
  36 H36            1.2037    -1.7669    -0.0186 H       
  37 H37            1.1403     3.1784     0.0079 H       
  38 H38            4.0155     2.7537    -0.0219 H       
  39 H39            8.9276    -0.6941    -0.0865 H       
  40 H40            8.8529     1.8702    -0.0721 H       
  41 H41            5.3682    -1.9869    -0.0596 H       
  42 H42            5.5024    -7.8534    -0.0893 H       
  43 H43            3.8798    -6.0061    -0.0677 H       
  44 H44            4.6551    -3.6765    -0.0564 H       
  45 H45           -1.1522    -1.7232     0.5182 H       
  46 H46           -2.0559    -0.1898     0.5354 H       
  47 H47           -2.5454    -2.9149    -1.0095 H       
  48 H48           -3.6832    -1.5591    -0.8137 H       
  49 H49            0.1967    -0.7734    -2.1739 H       
  50 H50           -0.2668    -2.4535    -1.8083 H       
  51 H51           -1.4002    -0.7130    -4.0462 H       
  52 H52           -0.2928    -2.0935    -4.2433 H       
  53 H53           -4.1188    -2.8683    -2.9020 H       
  54 H54           -3.6850    -1.1757    -3.2453 H       
  55 H55           10.9011    -5.7841    -0.0443 H       
  56 H56            9.8352    -6.2065     1.3211 H       
  57 H57            9.4799    -7.1421    -1.5707 H       
  58 H58           10.0915    -8.1395    -0.2254 H       
@<TRIPOS>BOND
   1    1    2 ar
   2    1    6 ar
   3    1   35 1
   4    2    3 ar
   5    2   24 1
   6    3    4 ar
   7    3   36 1
   8    4    5 ar
   9    4    7 1
  10    5    6 ar
  11    5    9 1
  12    6   37 1
  13    7    8 2
  14    8    9 1
  15    8   10 1
  16    9   38 1
  17   10   11 1
  18   10   14 2
  19   11   12 2
  20   11   15 1
  21   12   13 1
  22   12   39 1
  23   13   14 1
  24   13   40 1
  25   15   16 am
  26   15   41 1
  27   16   17 1
  28   16   18 2
  29   17   19 ar
  30   17   23 ar
  31   19   20 ar
  32   19   31 1
  33   20   21 ar
  34   20   34 1
  35   21   22 ar
  36   21   42 1
  37   22   23 ar
  38   22   43 1
  39   23   44 1
  40   24   25 1
  41   24   45 1
  42   24   46 1
  43   25   26 1
  44   25   27 1
  45   26   30 1
  46   26   47 1
  47   26   48 1
  48   27   28 1
  49   27   49 1
  50   27   50 1
  51   28   29 1
  52   28   51 1
  53   28   52 1
  54   29   30 1
  55   30   53 1
  56   30   54 1
  57   31   32 1
  58   32   33 1
  59   32   55 1
  60   32   56 1
  61   33   34 1
  62   33   57 1
  63   33   58 1

#	End of record

