#	Name: ASD05430103
#	Creating user name:	WinNT
#	Creation time:	15. 06. 2019 20:59

#	Modifying user name:	WinNT
#	Modification time:	15. 06. 2019 20:59

#	Program:	/corina/corina34_cracker 3.40 0067  02.08.2006

@<TRIPOS>MOLECULE
ASD05430103
  68   73    0    0    0
SMALL
NO_CHARGES


@<TRIPOS>ATOM
   1 F1            12.4803    -0.5186     3.1162 F       
   2 C2             0.1552     0.9943    -0.1129 C.ar    
   3 C3             0.1927    -0.1535    -0.9039 C.ar    
   4 C4             1.3858    -0.5599    -1.4877 C.ar    
   5 C5             2.5378     0.1691    -1.2880 C.ar    
   6 C6             2.5076     1.3214    -0.4958 C.ar    
   7 C7             1.3068     1.7305     0.0918 C.ar    
   8 C8             5.0006    -0.0343    -0.1220 C.3     
   9 C9             4.9231     1.4737    -0.1769 C.2     
  10 C10            3.7374     2.1017    -0.2813 C.2     
  11 C11            6.3281    -0.4750     0.4971 C.3     
  12 C12            6.9043     0.5324     1.4972 C.3     
  13 N13            7.1285     1.8053     0.8133 N.pl3   
  14 C14            6.1812     2.2378    -0.1126 C.2     
  15 C15            9.4163     1.7908     1.6250 C.ar    
  16 C16           10.2614     1.1220     0.7592 C.ar    
  17 C17           11.2905     0.3465     1.2587 C.ar    
  18 C18           11.4749     0.2396     2.6268 C.ar    
  19 C19           10.6279     0.9099     3.4929 C.ar    
  20 C20            9.5995     1.6849     2.9912 C.ar    
  21 N21           -0.9759    -0.8991    -1.1100 N.pl3   
  22 C22           -1.4694    -1.3238    -2.3164 C.2     
  23 C23           -2.6035    -2.0021    -2.0569 C.2     
  24 N24           -2.8016    -1.9948    -0.7304 N.2     
  25 C25           -1.8304    -1.3423    -0.1517 C.2     
  26 C26            6.2800    -1.9009     1.0553 C.3     
  27 S27            8.0317    -2.1206     0.6378 S.o2    
  28 C28            7.3534    -0.9262    -0.5473 C.3     
  29 O29            8.9024    -1.5196     1.5865 O.2     
  30 C30           -3.4960    -2.6560    -3.0801 C.3     
  31 C31           -0.9808     2.5771     1.2505 C.3     
  32 O32           -1.0155     1.3922     0.4524 O.3     
  33 C33            8.2983     2.6412     1.0790 C.3     
  34 C34            8.7385     3.2890    -0.2384 C.3     
  35 O35            7.6370     3.9537    -0.8484 O.3     
  36 N36            6.4164     3.2499    -0.8813 N.2     
  37 O37            8.3022    -3.3855     0.0497 O.2     
  38 C38            7.9352     3.7288     2.0920 C.3     
  39 O39            9.0814     4.5428     2.3483 O.3     
  40 H40            1.4106    -1.4496    -2.0994 H       
  41 H41            3.4641    -0.1494    -1.7429 H       
  42 H42            1.2790     2.6198     0.7039 H       
  43 H43            4.1768    -0.4163     0.4809 H       
  44 H44            4.9222    -0.4367    -1.1320 H       
  45 H45            3.6881     3.1780    -0.2076 H       
  46 H46            6.1998     0.6773     2.3162 H       
  47 H47            7.8497     0.1574     1.8892 H       
  48 H48           10.1171     1.2052    -0.3078 H       
  49 H49           11.9504    -0.1762     0.5821 H       
  50 H50           10.7708     0.8272     4.5602 H       
  51 H51            8.9386     2.2078     3.6666 H       
  52 H52           -1.0329    -1.1477    -3.2884 H       
  53 H53           -1.7275    -1.1763     0.9105 H       
  54 H54            6.0877    -1.9349     2.1277 H       
  55 H55            5.6194    -2.5596     0.4917 H       
  56 H56            6.8985    -1.3981    -1.4183 H       
  57 H57            8.0612    -0.1431    -0.8190 H       
  58 H58           -3.1712    -3.6838    -3.2417 H       
  59 H59           -4.5248    -2.6524    -2.7201 H       
  60 H60           -3.4375    -2.1046    -4.0185 H       
  61 H61           -0.6501     3.4171     0.6396 H       
  62 H62           -1.9778     2.7818     1.6405 H       
  63 H63           -0.2880     2.4362     2.0801 H       
  64 H64            9.5310     4.0104    -0.0393 H       
  65 H65            9.1142     2.5189    -0.9121 H       
  66 H66            7.1330     4.3472     1.6893 H       
  67 H67            7.6044     3.2642     3.0209 H       
  68 H68            8.9239     5.2550     2.9832 H       
@<TRIPOS>BOND
   1    1   18 1
   2    2    3 ar
   3    2    7 ar
   4    2   32 1
   5    3    4 ar
   6    3   21 1
   7    4    5 ar
   8    4   40 1
   9    5    6 ar
  10    5   41 1
  11    6    7 ar
  12    6   10 1
  13    7   42 1
  14    8    9 1
  15    8   11 1
  16    8   43 1
  17    8   44 1
  18    9   10 2
  19    9   14 1
  20   10   45 1
  21   11   12 1
  22   11   26 1
  23   11   28 1
  24   12   13 1
  25   12   46 1
  26   12   47 1
  27   13   14 1
  28   13   33 1
  29   14   36 2
  30   15   16 ar
  31   15   20 ar
  32   15   33 1
  33   16   17 ar
  34   16   48 1
  35   17   18 ar
  36   17   49 1
  37   18   19 ar
  38   19   20 ar
  39   19   50 1
  40   20   51 1
  41   21   22 1
  42   21   25 1
  43   22   23 2
  44   22   52 1
  45   23   24 1
  46   23   30 1
  47   24   25 2
  48   25   53 1
  49   26   27 1
  50   26   54 1
  51   26   55 1
  52   27   28 1
  53   27   29 2
  54   27   37 2
  55   28   56 1
  56   28   57 1
  57   30   58 1
  58   30   59 1
  59   30   60 1
  60   31   32 1
  61   31   61 1
  62   31   62 1
  63   31   63 1
  64   33   34 1
  65   33   38 1
  66   34   35 1
  67   34   64 1
  68   34   65 1
  69   35   36 1
  70   38   39 1
  71   38   66 1
  72   38   67 1
  73   39   68 1

#	End of record

