#	Name: ASD01140568
#	Creating user name:	WinNT
#	Creation time:	15. 06. 2019 19:01

#	Modifying user name:	WinNT
#	Modification time:	15. 06. 2019 19:01

#	Program:	/corina/corina34_cracker 3.40 0067  02.08.2006

@<TRIPOS>MOLECULE
ASD01140568
  81   86    0    0    0
SMALL
NO_CHARGES


@<TRIPOS>ATOM
   1 C1            -0.3587     1.6918     0.2622 C.3     
   2 C2            -0.4429     0.1667     0.3481 C.3     
   3 C3             0.2701    -0.4520    -0.8560 C.3     
   4 C4             1.7385    -0.0220    -0.8544 C.3     
   5 C5             1.8226     1.5028    -0.9412 C.3     
   6 C6             1.1094     2.1240     0.2618 C.3     
   7 C7             1.1903     3.6482     0.1681 C.3     
   8 C8             3.2901     1.9349    -0.9441 C.3     
   9 C9             3.3736     3.4601    -1.0334 C.3     
  10 C10            2.6649     4.0800     0.1718 C.3     
  11 C11            0.5519     5.8168     1.3037 C.3     
  12 C12            0.4185     4.2844     1.3191 C.3     
  13 C13            2.0314     6.1414     1.3719 C.3     
  14 C14            2.4055     7.6201     1.3563 C.3     
  15 C15            2.6885     5.5942     0.0758 C.3     
  16 C16            4.0737     6.2474     0.1303 C.3     
  17 C17            3.7572     7.6927     0.6031 C.3     
  18 C18            0.1851    -1.9772    -0.7708 C.3     
  19 H19            1.3447     1.8409    -1.8606 H       
  20 C20            1.7811     1.6527     1.5532 C.3     
  21 H21            3.1441     3.7467     1.0923 H       
  22 C22            2.6541     5.4630     2.5938 C.3     
  23 C23            2.5641     8.1335     2.7642 C.2     
  24 O24            3.6527     8.1357     3.2871 O.2     
  25 C25            1.3643     8.6441     3.5197 C.3     
  26 O26            1.7681     9.0719     4.8220 O.3     
  27 O27           -0.3556    -0.0063    -2.0609 O.3     
  28 H28            0.7321     3.9680    -0.7678 H       
  29 H29            2.1344     5.9267    -0.8020 H       
  30 O30           -1.1864    -2.3787    -0.7715 O.3     
  31 C31           -1.3782    -3.7926    -0.6945 C.3     
  32 C32            0.7992     9.5635     5.6377 C.ar    
  33 C33            0.1303    10.5018     7.7382 C.ar    
  34 C34            1.1287     9.9925     6.8917 C.ar    
  35 C35           -0.5205     9.6284     5.1792 C.ar    
  36 C36           -1.5107    10.1166     5.9736 C.ar    
  37 C37           -1.2064    10.5613     7.2712 C.ar    
  38 C38           -2.2040    11.0722     8.1220 C.ar    
  39 C39           -1.8363    11.4909     9.3692 C.ar    
  40 C40           -0.5043    11.4055     9.7671 C.ar    
  41 N41            0.4240    10.9287     8.9720 N.ar    
  42 O42            1.7628    10.8639     9.4286 O.3     
  43 H43           -0.8373     2.0308    -0.6565 H       
  44 H44           -0.8666     2.1324     1.1201 H       
  45 H45            0.0351    -0.1725     1.2671 H       
  46 H46           -1.4889    -0.1400     0.3479 H       
  47 H47            2.2153    -0.3606     0.0654 H       
  48 H48            2.2473    -0.4634    -1.7114 H       
  49 H49            3.7698     1.5981    -0.0251 H       
  50 H50            3.7973     1.4926    -1.8016 H       
  51 H51            4.4194     3.7672    -1.0376 H       
  52 H52            2.8920     3.7973    -1.9512 H       
  53 H53            0.1265     6.2168     0.3833 H       
  54 H54            0.0388     6.2423     2.1661 H       
  55 H55           -0.6348     4.0172     1.2331 H       
  56 H56            0.8064     3.9020     2.2632 H       
  57 H57            1.6467     8.1961     0.8267 H       
  58 H58            4.7128     5.7370     0.8509 H       
  59 H59            4.5349     6.2568    -0.8573 H       
  60 H60            3.6711     8.3571    -0.2567 H       
  61 H61            4.5404     8.0470     1.2733 H       
  62 H62            0.6931    -2.4179    -1.6287 H       
  63 H63            0.6626    -2.3170     0.1482 H       
  64 H64            1.7225     0.5662     1.6176 H       
  65 H65            2.8266     1.9608     1.5523 H       
  66 H66            1.2726     2.0954     2.4096 H       
  67 H67            2.4778     4.3886     2.5420 H       
  68 H68            3.7269     5.6550     2.6086 H       
  69 H69            2.2010     5.8623     3.5012 H       
  70 H70            0.9262     9.4843     2.9809 H       
  71 H71            0.6266     7.8470     3.6116 H       
  72 H72           -1.2904    -0.2440    -2.1299 H       
  73 H73           -0.9026    -4.2710    -1.5508 H       
  74 H74           -0.9331    -4.1701     0.2261 H       
  75 H75           -2.4452    -4.0154    -0.7002 H       
  76 H76            2.1526     9.9399     7.2312 H       
  77 H77           -0.7561     9.2870     4.1821 H       
  78 H78           -2.5261    10.1626     5.6086 H       
  79 H79           -3.2324    11.1319     7.7977 H       
  80 H80           -2.5780    11.8884    10.0462 H       
  81 H81           -0.2283    11.7407    10.7560 H       
@<TRIPOS>BOND
   1    1    2 1
   2    1    6 1
   3    1   43 1
   4    1   44 1
   5    2    3 1
   6    2   45 1
   7    2   46 1
   8    3    4 1
   9    3   18 1
  10    3   27 1
  11    4    5 1
  12    4   47 1
  13    4   48 1
  14    5    6 1
  15    5    8 1
  16    5   19 1
  17    6    7 1
  18    6   20 1
  19    7   10 1
  20    7   28 1
  21    7   12 1
  22    8    9 1
  23    8   49 1
  24    8   50 1
  25    9   10 1
  26    9   51 1
  27    9   52 1
  28   10   15 1
  29   10   21 1
  30   11   12 1
  31   11   13 1
  32   11   53 1
  33   11   54 1
  34   12   55 1
  35   12   56 1
  36   13   15 1
  37   13   22 1
  38   13   14 1
  39   14   17 1
  40   14   23 1
  41   14   57 1
  42   15   16 1
  43   15   29 1
  44   16   17 1
  45   16   58 1
  46   16   59 1
  47   17   60 1
  48   17   61 1
  49   18   30 1
  50   18   62 1
  51   18   63 1
  52   20   64 1
  53   20   65 1
  54   20   66 1
  55   22   67 1
  56   22   68 1
  57   22   69 1
  58   23   24 2
  59   23   25 1
  60   25   26 1
  61   25   70 1
  62   25   71 1
  63   26   32 1
  64   27   72 1
  65   30   31 1
  66   31   73 1
  67   31   74 1
  68   31   75 1
  69   32   35 ar
  70   32   34 ar
  71   33   34 ar
  72   33   37 ar
  73   33   41 ar
  74   34   76 1
  75   35   36 ar
  76   35   77 1
  77   36   37 ar
  78   36   78 1
  79   37   38 ar
  80   38   39 ar
  81   38   79 1
  82   39   40 ar
  83   39   80 1
  84   40   41 ar
  85   40   81 1
  86   41   42 1

#	End of record

