#	Name: ASD08170349
#	Creating user name:	WinNT
#	Creation time:	15. 06. 2019 21:17

#	Modifying user name:	WinNT
#	Modification time:	15. 06. 2019 21:17

#	Program:	/corina/corina34_cracker 3.40 0067  02.08.2006

@<TRIPOS>MOLECULE
ASD08170349
  73   76    0    0    0
SMALL
NO_CHARGES


@<TRIPOS>ATOM
   1 C1            -0.0167     1.3781     0.0096 C.ar    
   2 C2             0.0021    -0.0041     0.0020 C.ar    
   3 C3             1.2084    -0.6789    -0.0132 C.ar    
   4 C4             2.3961     0.0285    -0.0212 C.ar    
   5 C5             2.3773     1.4107    -0.0145 C.ar    
   6 C6             1.1709     2.0855     0.0021 C.ar    
   7 C7             1.2289    -2.1857    -0.0205 C.3     
   8 C8             1.9337    -2.6725    -1.2603 C.2     
   9 N9             2.0727    -3.9948    -1.4812 N.am    
  10 C10            2.7232    -4.4441    -2.6254 C.2     
  11 S11            2.9801    -6.0839    -3.0491 S.3     
  12 C12            3.8027    -5.5550    -4.5172 C.2     
  13 N13            3.7950    -4.2598    -4.5283 N.2     
  14 N14            3.2318    -3.6899    -3.5526 N.2     
  15 O15            2.3760    -1.8745    -2.0594 O.2     
  16 C16            4.4065    -6.4493    -5.5691 C.3     
  17 C17            5.8670    -6.7379    -5.2161 C.3     
  18 C18            6.4800    -7.6459    -6.2842 C.3     
  19 C19            7.9405    -7.9344    -5.9312 C.3     
  20 C20            8.5443    -8.8287    -6.9831 C.2     
  21 N21            9.1466    -8.4310    -8.0573 N.2     
  22 S22            8.5545   -10.5406    -6.9531 S.3     
  23 C23            9.3928   -10.5569    -8.4459 C.2     
  24 N24            9.5893    -9.3344    -8.8225 N.2     
  25 C25            9.8330   -11.7889    -9.1938 C.3     
  26 C26           11.2186   -12.1791    -8.7477 C.2     
  27 O27           11.7896   -11.5243    -7.9089 O.2     
  28 C28           11.8915   -13.3864    -9.3482 C.3     
  29 C29           13.3869   -13.2325    -9.2424 C.ar    
  30 C30           14.1633   -13.2229   -10.3861 C.ar    
  31 C31           13.9816   -13.0953    -8.0021 C.ar    
  32 C32           15.3533   -12.9541    -7.9051 C.ar    
  33 C33           16.1303   -12.9506    -9.0484 C.ar    
  34 C34           15.5350   -13.0818   -10.2891 C.ar    
  35 C35           11.4535   -14.6428    -8.5929 C.3     
  36 O36           10.0538   -14.8532    -8.7897 O.3     
  37 C37            9.5401   -16.0079    -8.1227 C.3     
  38 C38            1.9694    -2.6917     1.2191 C.3     
  39 O39            1.2379    -2.3292     2.3920 O.3     
  40 C40            1.8468    -2.7568     3.6120 C.3     
  41 H41           -0.9592     1.9054     0.0170 H       
  42 H42           -0.9258    -0.5567     0.0083 H       
  43 H43            3.3386    -0.4987    -0.0324 H       
  44 H44            3.3052     1.9634    -0.0205 H       
  45 H45            1.1563     3.1654     0.0069 H       
  46 H46            0.2063    -2.5630    -0.0120 H       
  47 H47            1.7190    -4.6331    -0.8421 H       
  48 H48            3.8511    -7.3862    -5.6119 H       
  49 H49            4.3581    -5.9537    -6.5387 H       
  50 H50            6.4224    -5.8009    -5.1734 H       
  51 H51            5.9154    -7.2335    -4.2465 H       
  52 H52            5.9246    -8.5828    -6.3269 H       
  53 H53            6.4316    -7.1502    -7.2538 H       
  54 H54            8.4959    -6.9975    -5.8884 H       
  55 H55            7.9889    -8.4300    -4.9616 H       
  56 H56            9.1414   -12.6057    -8.9875 H       
  57 H57            9.8409   -11.5810   -10.2638 H       
  58 H58           11.6087   -13.4759   -10.3970 H       
  59 H59           13.6983   -13.3260   -11.3554 H       
  60 H60           13.3746   -13.0980    -7.1089 H       
  61 H61           15.8179   -12.8462    -6.9362 H       
  62 H62           17.2020   -12.8400    -8.9727 H       
  63 H63           16.1421   -13.0791   -11.1824 H       
  64 H64           12.0066   -15.5038    -8.9683 H       
  65 H65           11.6559   -14.5165    -7.5293 H       
  66 H66            8.4722   -16.0973    -8.3216 H       
  67 H67           10.0536   -16.8971    -8.4883 H       
  68 H68            9.7028   -15.9099    -7.0494 H       
  69 H69            2.0619    -3.7766     1.1694 H       
  70 H70            2.9624    -2.2438     1.2572 H       
  71 H71            1.9368    -3.8431     3.6120 H       
  72 H72            2.8373    -2.3102     3.6998 H       
  73 H73            1.2309    -2.4433     4.4549 H       
@<TRIPOS>BOND
   1    1    2 ar
   2    1    6 ar
   3    1   41 1
   4    2    3 ar
   5    2   42 1
   6    3    4 ar
   7    3    7 1
   8    4    5 ar
   9    4   43 1
  10    5    6 ar
  11    5   44 1
  12    6   45 1
  13    7    8 1
  14    7   38 1
  15    7   46 1
  16    8    9 am
  17    8   15 2
  18    9   10 1
  19    9   47 1
  20   10   11 1
  21   10   14 2
  22   11   12 1
  23   12   13 2
  24   12   16 1
  25   13   14 1
  26   16   17 1
  27   16   48 1
  28   16   49 1
  29   17   18 1
  30   17   50 1
  31   17   51 1
  32   18   19 1
  33   18   52 1
  34   18   53 1
  35   19   20 1
  36   19   54 1
  37   19   55 1
  38   20   21 2
  39   20   22 1
  40   21   24 1
  41   22   23 1
  42   23   24 2
  43   23   25 1
  44   25   26 1
  45   25   56 1
  46   25   57 1
  47   26   27 2
  48   26   28 1
  49   28   29 1
  50   28   35 1
  51   28   58 1
  52   29   30 ar
  53   29   31 ar
  54   30   34 ar
  55   30   59 1
  56   31   32 ar
  57   31   60 1
  58   32   33 ar
  59   32   61 1
  60   33   34 ar
  61   33   62 1
  62   34   63 1
  63   35   36 1
  64   35   64 1
  65   35   65 1
  66   36   37 1
  67   37   66 1
  68   37   67 1
  69   37   68 1
  70   38   39 1
  71   38   69 1
  72   38   70 1
  73   39   40 1
  74   40   71 1
  75   40   72 1
  76   40   73 1

#	End of record

