#	Name: ASD05213029
#	Creating user name:	WinNT
#	Creation time:	15. 06. 2019 20:57

#	Modifying user name:	WinNT
#	Modification time:	15. 06. 2019 20:57

#	Program:	/corina/corina34_cracker 3.40 0067  02.08.2006

@<TRIPOS>MOLECULE
ASD05213029
  23   25    0    0    0
SMALL
NO_CHARGES


@<TRIPOS>ATOM
   1 S1            -0.0218     1.7577     0.0117 S.3     
   2 C2             0.0021    -0.0041     0.0020 C.2     
   3 N3            -1.0464    -0.7547     0.0080 N.2     
   4 C4            -0.8654    -2.0900    -0.0009 C.ar    
   5 C5             0.4838    -2.4559    -0.0157 C.ar    
   6 S6             1.4586    -0.9882    -0.0248 S.3     
   7 C7            -1.8380    -3.1126     0.0029 C.ar    
   8 C8            -1.4594    -4.4323    -0.0073 C.ar    
   9 C9            -0.1158    -4.7812    -0.0216 C.ar    
  10 C10            0.8499    -3.7995    -0.0269 C.ar    
  11 Cl11          -2.6712    -5.6753    -0.0019 Cl      
  12 C12            1.7090     2.0873    -0.0030 C.2     
  13 S13            2.4091     3.6471    -0.0014 S.3     
  14 C14            4.0206     2.9356    -0.0199 C.2     
  15 C15            3.8872     1.6083    -0.0256 C.2     
  16 N16            2.6378     1.1818    -0.0111 N.2     
  17 N17            5.3017     3.6818    -0.0282 N.pl3   
  18 O18            6.3587     3.0769    -0.0415 O.2     
  19 O19            5.2970     4.8998    -0.0218 O.2     
  20 H20           -2.8869    -2.8555     0.0143 H       
  21 H21            0.1719    -5.8222    -0.0292 H       
  22 H22            1.8948    -4.0724    -0.0383 H       
  23 H23            4.7330     0.9368    -0.0369 H       
@<TRIPOS>BOND
   1    1    2 1
   2    1   12 1
   3    2    3 2
   4    2    6 1
   5    3    4 1
   6    4    5 ar
   7    4    7 ar
   8    5    6 1
   9    5   10 ar
  10    7    8 ar
  11    7   20 1
  12    8    9 ar
  13    8   11 1
  14    9   10 ar
  15    9   21 1
  16   10   22 1
  17   12   13 1
  18   12   16 2
  19   13   14 1
  20   14   15 2
  21   14   17 1
  22   15   16 1
  23   15   23 1
  24   17   18 2
  25   17   19 2

#	End of record

