#	Name: ASD01880414
#	Creating user name:	WinNT
#	Creation time:	15. 06. 2019 19:40

#	Modifying user name:	WinNT
#	Modification time:	15. 06. 2019 19:40

#	Program:	/corina/corina34_cracker 3.40 0067  02.08.2006

@<TRIPOS>MOLECULE
ASD01880414
  64   68    0    0    0
SMALL
NO_CHARGES


@<TRIPOS>ATOM
   1 C1            -0.0168     1.3896     0.0097 C.ar    
   2 C2             0.0021    -0.0041     0.0020 C.ar    
   3 C3             1.2218    -0.6793    -0.0133 C.ar    
   4 C4             2.4025     0.0347    -0.0207 C.ar    
   5 C5             2.3775     1.4181    -0.0130 C.ar    
   6 C6             1.1705     2.0933     0.0021 C.ar    
   7 C7             3.7217    -0.6936    -0.0367 C.3     
   8 O8             4.1261    -0.9170    -1.3890 O.3     
   9 C9             5.3018    -1.5661    -1.5810 C.ar    
  10 C10            6.0527    -1.9805    -0.4874 C.ar    
  11 C11            7.2485    -2.6407    -0.6787 C.ar    
  12 C12            7.7047    -2.8932    -1.9744 C.ar    
  13 C13            6.9353    -2.4691    -3.0717 C.ar    
  14 C14            5.7517    -1.8212    -2.8720 C.ar    
  15 C15            4.9336    -1.3709    -4.0547 C.3     
  16 C16            7.4176    -2.7356    -4.4744 C.3     
  17 C17            8.2388    -3.1868     0.3217 C.3     
  18 C18            9.3751    -3.8145    -0.4973 C.3     
  19 C19            8.9908    -3.6031    -1.9416 C.2     
  20 C20           10.6992    -3.1109    -0.1928 C.3     
  21 C21           11.0348    -3.2436     1.3030 C.3     
  22 C22           12.3766    -4.0000     1.3882 C.3     
  23 C23           13.0467    -3.7405     0.0162 C.3     
  24 C24           11.8488    -3.7913    -0.9644 C.3     
  25 O25            9.6326    -3.9575    -2.9078 O.2     
  26 C26           -1.2701    -0.7656     0.0106 C.ar    
  27 C27           -2.4887    -0.0867     0.0263 C.ar    
  28 C28           -3.6705    -0.7924     0.0347 C.ar    
  29 C29           -3.6491    -2.1899     0.0270 C.ar    
  30 C30           -2.4276    -2.8688     0.0108 C.ar    
  31 C31           -1.2474    -2.1605    -0.0029 C.ar    
  32 C32           -4.9154    -2.9480     0.0365 C.2     
  33 O33           -5.9770    -2.3573     0.0510 O.2     
  34 O34           -4.8942    -4.2952     0.0291 O.3     
  35 H35           -0.9588     1.9179     0.0170 H       
  36 H36            1.2425    -1.7591    -0.0189 H       
  37 H37            3.3042     1.9728    -0.0185 H       
  38 H38            1.1571     3.1732     0.0077 H       
  39 H39            4.4747    -0.0926     0.4731 H       
  40 H40            3.6144    -1.6509     0.4733 H       
  41 H41            5.6993    -1.7849     0.5142 H       
  42 H42            4.2427    -2.1636    -4.3416 H       
  43 H43            4.3701    -0.4769    -3.7875 H       
  44 H44            5.5962    -1.1463    -4.8905 H       
  45 H45            7.0375    -3.6996    -4.8123 H       
  46 H46            7.0567    -1.9499    -5.1381 H       
  47 H47            8.5074    -2.7499    -4.4872 H       
  48 H48            8.6267    -2.3799     0.9434 H       
  49 H49            7.7631    -3.9445     0.9443 H       
  50 H50            9.4538    -4.8796    -0.2795 H       
  51 H51           10.6346    -2.0585    -0.4691 H       
  52 H52           11.1339    -2.2556     1.7525 H       
  53 H53           10.2543    -3.8092     1.8120 H       
  54 H54           12.9903    -3.5985     2.1946 H       
  55 H55           12.2047    -5.0666     1.5332 H       
  56 H56           13.5202    -2.7589    -0.0030 H       
  57 H57           13.7689    -4.5234    -0.2153 H       
  58 H58           11.5917    -4.8242    -1.1994 H       
  59 H59           12.0774    -3.2375    -1.8749 H       
  60 H60           -2.5049     0.9932     0.0323 H       
  61 H61           -4.6137    -0.2666     0.0476 H       
  62 H62           -2.4097    -3.9487     0.0052 H       
  63 H63           -0.3033    -2.6849    -0.0155 H       
  64 H64           -5.7487    -4.7478     0.0358 H       
@<TRIPOS>BOND
   1    1    2 ar
   2    1    6 ar
   3    1   35 1
   4    2    3 ar
   5    2   26 1
   6    3    4 ar
   7    3   36 1
   8    4    5 ar
   9    4    7 1
  10    5    6 ar
  11    5   37 1
  12    6   38 1
  13    7    8 1
  14    7   39 1
  15    7   40 1
  16    8    9 1
  17    9   10 ar
  18    9   14 ar
  19   10   11 ar
  20   10   41 1
  21   11   12 ar
  22   11   17 1
  23   12   13 ar
  24   12   19 1
  25   13   14 ar
  26   13   16 1
  27   14   15 1
  28   15   42 1
  29   15   43 1
  30   15   44 1
  31   16   45 1
  32   16   46 1
  33   16   47 1
  34   17   18 1
  35   17   48 1
  36   17   49 1
  37   18   19 1
  38   18   20 1
  39   18   50 1
  40   19   25 2
  41   20   21 1
  42   20   24 1
  43   20   51 1
  44   21   22 1
  45   21   52 1
  46   21   53 1
  47   22   23 1
  48   22   54 1
  49   22   55 1
  50   23   24 1
  51   23   56 1
  52   23   57 1
  53   24   58 1
  54   24   59 1
  55   26   27 ar
  56   26   31 ar
  57   27   28 ar
  58   27   60 1
  59   28   29 ar
  60   28   61 1
  61   29   30 ar
  62   29   32 1
  63   30   31 ar
  64   30   62 1
  65   31   63 1
  66   32   33 2
  67   32   34 1
  68   34   64 1

#	End of record

