#	Name: ASD01948334
#	Creating user name:	WinNT
#	Creation time:	15. 06. 2019 20:14

#	Modifying user name:	WinNT
#	Modification time:	15. 06. 2019 20:14

#	Program:	/corina/corina34_cracker 3.40 0067  02.08.2006

@<TRIPOS>MOLECULE
ASD01948334
  53   55    0    0    0
SMALL
NO_CHARGES


@<TRIPOS>ATOM
   1 C1             0.8521     3.1576    -0.7691 C.2     
   2 N2             1.2799     2.0515    -1.4429 N.am    
   3 C3             2.5909     1.8215    -1.6405 C.2     
   4 C4             3.1255     3.8470    -0.4688 C.2     
   5 C5             1.7382     4.0564    -0.2798 C.2     
   6 C6             3.1773     6.4586    -1.4497 C.ar    
   7 C7             4.0295     6.0815    -0.4210 C.ar    
   8 N8             4.0475     4.7551     0.0239 N.pl3   
   9 C9             3.1618     7.7691    -1.8874 C.ar    
  10 C10            3.9945     8.7057    -1.3027 C.ar    
  11 C11            4.8456     8.3347    -0.2766 C.ar    
  12 C12            4.8661     7.0253     0.1663 C.ar    
  13 N13            1.2835     5.1912     0.4117 N.am    
  14 S14           -0.3413     5.4742     0.5607 S.o2    
  15 C15           -0.8961     4.2801     1.8084 C.3     
  16 O16            2.9485     0.8233    -2.2477 O.2     
  17 C17            0.2955     1.0976    -1.9597 C.3     
  18 F18            5.6970     6.6628     1.1680 F       
  19 I19            3.9669    10.6909    -1.9714 I       
  20 O20           -0.4212     6.7991     1.0682 O.2     
  21 O21           -0.8728     5.1452    -0.7155 O.2     
  22 C22            3.5456     2.7199    -1.1546 C.2     
  23 C23            5.0145     2.4643    -1.3742 C.3     
  24 C24           -2.4015     4.1657     2.0565 C.3     
  25 C25           -1.6610     3.0493     1.3174 C.3     
  26 C26            0.0335     4.1016     3.0104 C.3     
  27 C27            1.2431     3.2599     2.5990 C.3     
  28 C28            2.2255     3.1728     3.7687 C.3     
  29 O29            3.4064     2.4864     3.3489 O.3     
  30 O30            0.8098     1.9457     2.2421 O.3     
  31 H31           -0.2062     3.3206    -0.6283 H       
  32 H32            2.5299     5.7273    -1.9106 H       
  33 H33            4.7058     4.4717     0.6774 H       
  34 H34            2.4987     8.0624    -2.6878 H       
  35 H35            5.4950     9.0683     0.1778 H       
  36 H36            1.9213     5.8093     0.8019 H       
  37 H37            0.0093     1.3833    -2.9719 H       
  38 H38            0.7304     0.0982    -1.9734 H       
  39 H39           -0.5858     1.1015    -1.3182 H       
  40 H40            5.1398     1.5841    -2.0047 H       
  41 H41            5.4645     3.3284    -1.8629 H       
  42 H42            5.5015     2.2956    -0.4137 H       
  43 H43           -2.7296     3.9628     3.0760 H       
  44 H44           -3.0585     4.8079     1.4700 H       
  45 H45           -1.8308     2.9571     0.2447 H       
  46 H46           -1.5019     2.1120     1.8506 H       
  47 H47            0.3714     5.0783     3.3566 H       
  48 H48           -0.5038     3.5973     3.8136 H       
  49 H49            1.7356     3.7246     1.7448 H       
  50 H50            2.4875     4.1781     4.0987 H       
  51 H51            1.7626     2.6292     4.5923 H       
  52 H52            4.0750     2.3942     4.0415 H       
  53 H53            0.3620     1.4718     2.9562 H       
@<TRIPOS>BOND
   1    1    2 1
   2    1    5 2
   3    1   31 1
   4    2    3 am
   5    2   17 1
   6    3   22 1
   7    3   16 2
   8    4    5 1
   9    4    8 1
  10    4   22 2
  11    5   13 1
  12    6    7 ar
  13    6    9 ar
  14    6   32 1
  15    7    8 1
  16    7   12 ar
  17    8   33 1
  18    9   10 ar
  19    9   34 1
  20   10   11 ar
  21   10   19 1
  22   11   12 ar
  23   11   35 1
  24   12   18 1
  25   13   14 am
  26   13   36 1
  27   14   15 1
  28   14   20 2
  29   14   21 2
  30   15   24 1
  31   15   26 1
  32   15   25 1
  33   17   37 1
  34   17   38 1
  35   17   39 1
  36   22   23 1
  37   23   40 1
  38   23   41 1
  39   23   42 1
  40   24   25 1
  41   24   43 1
  42   24   44 1
  43   25   45 1
  44   25   46 1
  45   26   27 1
  46   26   47 1
  47   26   48 1
  48   27   28 1
  49   27   30 1
  50   27   49 1
  51   28   29 1
  52   28   50 1
  53   28   51 1
  54   29   52 1
  55   30   53 1

#	End of record

