#	Name: ASD06170012
#	Creating user name:	WinNT
#	Creation time:	15. 06. 2019 21:05

#	Modifying user name:	WinNT
#	Modification time:	15. 06. 2019 21:05

#	Program:	/corina/corina34_cracker 3.40 0067  02.08.2006

@<TRIPOS>MOLECULE
ASD06170012
  69   74    0    0    0
SMALL
NO_CHARGES


@<TRIPOS>ATOM
   1 N1             0.1458     1.3900    -0.5065 N.pl3   
   2 N2            -0.0878     0.1571     0.1093 N.am    
   3 C3             1.0596    -0.2775     0.6679 C.2     
   4 C4             2.0826     0.7401     0.3901 C.2     
   5 C5             1.4510     1.7458    -0.3406 C.2     
   6 C6             3.4894     0.7051     0.8005 C.2     
   7 O7             4.2095     1.6630     0.5874 O.2     
   8 N8             3.9854    -0.3877     1.4138 N.am    
   9 C9             3.7818     4.1020    -2.1136 C.ar    
  10 C10            3.2217     2.9230    -1.6632 C.ar    
  11 C11            2.0855     2.9801    -0.8468 C.ar    
  12 C12            1.5674     4.2404    -0.5243 C.ar    
  13 C13            2.1924     5.3675    -1.0200 C.ar    
  14 N14            3.2612     5.2680    -1.7855 N.ar    
  15 O15            1.2179    -1.3144     1.2850 O.2     
  16 C16           -0.8582     2.1771    -1.2265 C.3     
  17 C17            5.3222    -0.4108     1.8297 C.ar    
  18 C18            5.9643     0.7728     2.1701 C.ar    
  19 C19            7.2840     0.7489     2.5805 C.ar    
  20 C20            7.9670    -0.4594     2.6523 C.ar    
  21 C21            7.3251    -1.6402     2.3118 C.ar    
  22 C22            6.0043    -1.6176     1.9075 C.ar    
  23 O23            9.2654    -0.4834     3.0560 O.3     
  24 N24           10.0265    -0.0304     7.0840 N.ar    
  25 C25            8.8009     0.0791     6.6274 C.ar    
  26 C26            8.5063    -0.0678     5.2780 C.ar    
  27 C27            9.5234    -0.3357     4.3785 C.ar    
  28 C28           10.8394    -0.4510     4.8813 C.ar    
  29 C29           11.9218    -0.7208     4.0310 C.ar    
  30 C30           13.1774    -0.8255     4.5454 C.ar    
  31 C31           13.4044    -0.6676     5.9156 C.ar    
  32 C32           12.3630    -0.4022     6.7758 C.ar    
  33 C33           11.0578    -0.2888     6.2712 C.ar    
  34 O34           14.6671    -0.7778     6.4040 O.3     
  35 C35           15.7052    -1.0546     5.4618 C.3     
  36 F36            7.9097     1.8996     2.9113 F       
  37 C37           -1.3714    -0.5484     0.1424 C.3     
  38 C38           -1.4251    -1.5467    -0.9852 C.ar    
  39 C39           -0.9732    -2.8380    -0.7872 C.ar    
  40 C40           -1.0225    -3.7537    -1.8216 C.ar    
  41 C41           -1.5241    -3.3783    -3.0538 C.ar    
  42 C42           -1.9768    -2.0872    -3.2515 C.ar    
  43 C43           -1.9315    -1.1727    -2.2159 C.ar    
  44 H44            3.4164    -1.1581     1.5671 H       
  45 H45            4.6609     4.0687    -2.7401 H       
  46 H46            3.6533     1.9714    -1.9363 H       
  47 H47            0.6922     4.3295     0.1023 H       
  48 H48            1.8005     6.3441    -0.7770 H       
  49 H49           -1.8137     1.6528    -1.2067 H       
  50 H50           -0.9680     3.1506    -0.7485 H       
  51 H51           -0.5402     2.3137    -2.2601 H       
  52 H52            5.4330     1.7113     2.1137 H       
  53 H53            7.8566    -2.5787     2.3671 H       
  54 H54            5.5035    -2.5384     1.6474 H       
  55 H55            7.9991     0.2880     7.3202 H       
  56 H56            7.4877     0.0276     4.9320 H       
  57 H57           11.7591    -0.8455     2.9707 H       
  58 H58           14.0081    -1.0333     3.8872 H       
  59 H59           12.5489    -0.2820     7.8329 H       
  60 H60           16.6609    -1.1171     5.9821 H       
  61 H61           15.5003    -2.0019     4.9632 H       
  62 H62           15.7462    -0.2557     4.7213 H       
  63 H63           -1.4752    -1.0694     1.0942 H       
  64 H64           -2.1837     0.1698     0.0309 H       
  65 H65           -0.5814    -3.1314     0.1755 H       
  66 H66           -0.6688    -4.7624    -1.6671 H       
  67 H67           -1.5619    -4.0935    -3.8621 H       
  68 H68           -2.3683    -1.7938    -4.2143 H       
  69 H69           -2.2886    -0.1650    -2.3693 H       
@<TRIPOS>BOND
   1    1    2 1
   2    1    5 1
   3    1   16 1
   4    2    3 am
   5    2   37 1
   6    3    4 1
   7    3   15 2
   8    4    5 2
   9    4    6 1
  10    5   11 1
  11    6    7 2
  12    6    8 am
  13    8   17 1
  14    8   44 1
  15    9   10 ar
  16    9   14 ar
  17    9   45 1
  18   10   11 ar
  19   10   46 1
  20   11   12 ar
  21   12   13 ar
  22   12   47 1
  23   13   14 ar
  24   13   48 1
  25   16   49 1
  26   16   50 1
  27   16   51 1
  28   17   18 ar
  29   17   22 ar
  30   18   19 ar
  31   18   52 1
  32   19   20 ar
  33   19   36 1
  34   20   21 ar
  35   20   23 1
  36   21   22 ar
  37   21   53 1
  38   22   54 1
  39   23   27 1
  40   24   25 ar
  41   24   33 ar
  42   25   26 ar
  43   25   55 1
  44   26   27 ar
  45   26   56 1
  46   27   28 ar
  47   28   29 ar
  48   28   33 ar
  49   29   30 ar
  50   29   57 1
  51   30   31 ar
  52   30   58 1
  53   31   32 ar
  54   31   34 1
  55   32   33 ar
  56   32   59 1
  57   34   35 1
  58   35   60 1
  59   35   61 1
  60   35   62 1
  61   37   38 1
  62   37   63 1
  63   37   64 1
  64   38   39 ar
  65   38   43 ar
  66   39   40 ar
  67   39   65 1
  68   40   41 ar
  69   40   66 1
  70   41   42 ar
  71   41   67 1
  72   42   43 ar
  73   42   68 1
  74   43   69 1

#	End of record

