#	Name: ASD01910737
#	Creating user name:	WinNT
#	Creation time:	15. 06. 2019 19:56

#	Modifying user name:	WinNT
#	Modification time:	15. 06. 2019 19:56

#	Program:	/corina/corina34_cracker 3.40 0067  02.08.2006

@<TRIPOS>MOLECULE
ASD01910737
  55   58    0    0    0
SMALL
NO_CHARGES


@<TRIPOS>ATOM
   1 C1            12.4213    -2.2989     4.1746 C.ar    
   2 N2            12.9660    -2.4594     2.9802 N.ar    
   3 C3            12.2900    -2.1318     1.8955 C.ar    
   4 C4            11.0010    -1.6163     2.0100 C.ar    
   5 N5            10.4585    -1.4570     3.2103 N.ar    
   6 C6            11.1427    -1.7877     4.2922 C.ar    
   7 N7            10.2853    -1.2694     0.8700 N.3     
   8 C8             8.9567    -0.7499     1.2203 C.3     
   9 C9             8.2729    -0.2126    -0.0415 C.3     
  10 N10            8.2773    -1.2716    -1.0621 N.am    
  11 C11            9.5526    -1.9366    -1.3695 C.3     
  12 C12           10.1860    -2.4059    -0.0554 C.3     
  13 C13            7.1426    -1.6236    -1.6985 C.2     
  14 C14            7.1894    -2.6011    -2.8071 C.ar    
  15 O15            6.0807    -1.1376    -1.3612 O.2     
  16 C16            6.1831    -3.5608    -2.9367 C.ar    
  17 C17            6.2245    -4.4750    -3.9713 C.ar    
  18 C18            7.2595    -4.4479    -4.8839 C.ar    
  19 C19            8.2742    -3.4928    -4.7664 C.ar    
  20 C20            8.2344    -2.5629    -3.7277 C.ar    
  21 C21            9.3482    -3.4660    -5.7132 C.1     
  22 C22           10.2287    -3.4441    -6.4895 C.1     
  23 C23           11.3026    -3.4173    -7.4363 C.ar    
  24 C24            7.2964    -5.4497    -6.0091 C.3     
  25 C25           12.3170    -2.4634    -7.3197 C.ar    
  26 C26           13.3499    -2.4410    -8.2341 C.ar    
  27 C27           13.3853    -3.3599    -9.2667 C.ar    
  28 C28           12.3815    -4.3116    -9.3915 C.ar    
  29 C29           11.3434    -4.3482    -8.4769 C.ar    
  30 O30           12.4220    -5.2117   -10.4091 O.3     
  31 C31           13.5254    -5.1204   -11.3125 C.3     
  32 H32           12.9756    -2.5722     5.0603 H       
  33 H33           12.7355    -2.2627     0.9204 H       
  34 H34           10.7016    -1.6583     5.2695 H       
  35 H35            8.3538    -1.5512     1.6475 H       
  36 H36            9.0611     0.0548     1.9481 H       
  37 H37            7.2456     0.0684     0.1902 H       
  38 H38            8.8182     0.6554    -0.4121 H       
  39 H39            9.3714    -2.7953    -2.0159 H       
  40 H40           10.2210    -1.2343    -1.8678 H       
  41 H41           11.1820    -2.8023    -0.2529 H       
  42 H42            9.5660    -3.1842     0.3895 H       
  43 H43            5.3705    -3.5885    -2.2259 H       
  44 H44            5.4435    -5.2148    -4.0663 H       
  45 H45            9.0150    -1.8227    -3.6319 H       
  46 H46            6.7666    -5.0465    -6.8721 H       
  47 H47            8.3322    -5.6527    -6.2810 H       
  48 H48            6.8171    -6.3745    -5.6880 H       
  49 H49           12.2924    -1.7440    -6.5145 H       
  50 H50           14.1333    -1.7031    -8.1433 H       
  51 H51           14.1965    -3.3371    -9.9793 H       
  52 H52           10.5626    -5.0881    -8.5728 H       
  53 H53           13.4360    -5.8944   -12.0747 H       
  54 H54           13.5250    -4.1399   -11.7886 H       
  55 H55           14.4569    -5.2572   -10.7633 H       
@<TRIPOS>BOND
   1    1    2 ar
   2    1    6 ar
   3    1   32 1
   4    2    3 ar
   5    3    4 ar
   6    3   33 1
   7    4    5 ar
   8    4    7 1
   9    5    6 ar
  10    6   34 1
  11    7    8 1
  12    7   12 1
  13    8    9 1
  14    8   35 1
  15    8   36 1
  16    9   10 1
  17    9   37 1
  18    9   38 1
  19   10   11 1
  20   10   13 am
  21   11   12 1
  22   11   39 1
  23   11   40 1
  24   12   41 1
  25   12   42 1
  26   13   14 1
  27   13   15 2
  28   14   16 ar
  29   14   20 ar
  30   16   17 ar
  31   16   43 1
  32   17   18 ar
  33   17   44 1
  34   18   19 ar
  35   18   24 1
  36   19   20 ar
  37   19   21 1
  38   20   45 1
  39   21   22 3
  40   22   23 1
  41   23   25 ar
  42   23   29 ar
  43   24   46 1
  44   24   47 1
  45   24   48 1
  46   25   26 ar
  47   25   49 1
  48   26   27 ar
  49   26   50 1
  50   27   28 ar
  51   27   51 1
  52   28   29 ar
  53   28   30 1
  54   29   52 1
  55   30   31 1
  56   31   53 1
  57   31   54 1
  58   31   55 1

#	End of record

