#	Name: ASD01810669
#	Creating user name:	WinNT
#	Creation time:	15. 06. 2019 19:25

#	Modifying user name:	WinNT
#	Modification time:	15. 06. 2019 19:25

#	Program:	/corina/corina34_cracker 3.40 0067  02.08.2006

@<TRIPOS>MOLECULE
ASD01810669
  39   41    0    0    0
SMALL
NO_CHARGES


@<TRIPOS>ATOM
   1 N1            -0.0147     1.2901    -0.1148 N.pl3   
   2 N2             0.0047     0.0243    -0.3032 N.2     
   3 C3             1.1017    -0.6857    -0.4436 C.2     
   4 C4             2.4121    -0.0105    -0.3855 C.2     
   5 C5             2.3838     1.4477    -0.1683 C.ar    
   6 C6             3.5476     2.2075    -0.0924 C.ar    
   7 C7             3.4566     3.5676     0.1126 C.ar    
   8 C8             2.2159     4.1758     0.2430 C.ar    
   9 C9             1.0546     3.4355     0.1700 C.ar    
  10 C10            1.1226     2.0601    -0.0371 C.ar    
  11 C11            1.0235    -2.1413    -0.6565 C.2     
  12 O12            2.0418    -2.7920    -0.7857 O.2     
  13 O13           -0.1772    -2.7514    -0.7081 O.3     
  14 S14            3.8819    -0.8710    -0.5597 S.2     
  15 C15           -1.3140     1.9535     0.0188 C.3     
  16 C16           -2.4148     0.9318    -0.1055 C.ar    
  17 C17           -2.8910     0.2885     1.0216 C.ar    
  18 C18           -3.9003    -0.6490     0.9079 C.ar    
  19 C19           -4.4341    -0.9430    -0.3335 C.ar    
  20 C20           -3.9579    -0.2989    -1.4608 C.ar    
  21 C21           -2.9521     0.6422    -1.3458 C.ar    
  22 I22           -5.9635    -2.3644    -0.5064 I       
  23 Cl23          -0.4872     4.2157     0.3363 Cl      
  24 C24           -0.1783    -4.1877    -0.9206 C.3     
  25 C25           -1.6204    -4.6979    -0.9496 C.3     
  26 H26            4.5137     1.7354    -0.1930 H       
  27 H27            4.3556     4.1631     0.1725 H       
  28 H28            2.1591     5.2422     0.4041 H       
  29 H29           -1.3762     2.4379     0.9933 H       
  30 H30           -1.4224     2.7017    -0.7664 H       
  31 H31           -2.4741     0.5181     1.9911 H       
  32 H32           -4.2718    -1.1521     1.7884 H       
  33 H33           -4.3743    -0.5286    -2.4305 H       
  34 H34           -2.5829     1.1482    -2.2257 H       
  35 H35            0.3066    -4.4149    -1.8700 H       
  36 H36            0.3634    -4.6753    -0.1101 H       
  37 H37           -1.6212    -5.7762    -1.1092 H       
  38 H38           -2.1053    -4.4708    -0.0002 H       
  39 H39           -2.1621    -4.2103    -1.7601 H       
@<TRIPOS>BOND
   1    1    2 1
   2    1   10 1
   3    1   15 1
   4    2    3 2
   5    3    4 1
   6    3   11 1
   7    4    5 1
   8    4   14 2
   9    5    6 ar
  10    5   10 ar
  11    6    7 ar
  12    6   26 1
  13    7    8 ar
  14    7   27 1
  15    8    9 ar
  16    8   28 1
  17    9   10 ar
  18    9   23 1
  19   11   12 2
  20   11   13 1
  21   13   24 1
  22   15   16 1
  23   15   29 1
  24   15   30 1
  25   16   17 ar
  26   16   21 ar
  27   17   18 ar
  28   17   31 1
  29   18   19 ar
  30   18   32 1
  31   19   20 ar
  32   19   22 1
  33   20   21 ar
  34   20   33 1
  35   21   34 1
  36   24   25 1
  37   24   35 1
  38   24   36 1
  39   25   37 1
  40   25   38 1
  41   25   39 1

#	End of record

