#	Name: ASD00330006
#	Creating user name:	WinNT
#	Creation time:	15. 06. 2019 18:35

#	Modifying user name:	WinNT
#	Modification time:	15. 06. 2019 18:35

#	Program:	/corina/corina34_cracker 3.40 0067  02.08.2006

@<TRIPOS>MOLECULE
ASD00330006
  47   49    0    0    0
SMALL
NO_CHARGES


@<TRIPOS>ATOM
   1 O1            -0.0173     1.4248     0.0099 O.3     
   2 C2             0.0021    -0.0041     0.0020 C.3     
   3 C3            -1.4330    -0.5731     0.0127 C.3     
   4 C4            -2.3996     0.4671     0.5825 C.3     
   5 O5            -3.7033    -0.1066     0.6974 O.3     
   6 P6            -4.9725     0.7066     1.2629 P.3     
   7 O7            -5.1481     1.9519     0.4825 O.2     
   8 O8            -6.2950    -0.2017     1.1289 O.3     
   9 P9            -7.8732     0.1163     1.1120 P.3     
  10 O10           -8.1334     1.2759     0.2300 O.2     
  11 O11           -8.6735    -1.1674     0.5609 O.3     
  12 P12          -10.1377    -1.3856    -0.0719 P.3     
  13 O13          -11.1195    -0.5521     0.6573 O.2     
  14 O14          -10.1203    -0.9597    -1.6245 O.3     
  15 O15          -10.5514    -2.9364     0.0545 O.3     
  16 O16           -8.3681     0.4565     2.6059 O.3     
  17 O17           -4.7282     1.0736     2.8114 O.3     
  18 O18           -1.7884    -0.8764    -1.3414 O.3     
  19 C19           -0.7152    -0.5118    -2.2238 C.3     
  20 C20            0.5599    -0.5419    -1.3439 C.3     
  21 O21            1.5674     0.3259    -1.8674 O.3     
  22 N22           -0.6026    -1.4821    -3.3155 N.pl3   
  23 C23           -1.0360    -2.7744    -3.2940 C.2     
  24 N24           -0.7758    -3.3495    -4.4321 N.2     
  25 C25           -0.1606    -2.4654    -5.2538 C.ar    
  26 C26           -0.0471    -1.2552    -4.5493 C.ar    
  27 N27            0.5277    -0.2138    -5.1426 N.ar    
  28 C28            0.9853    -0.3111    -6.3729 C.ar    
  29 N29            0.9013    -1.4269    -7.0744 N.ar    
  30 C30            0.3396    -2.5187    -6.5661 C.ar    
  31 N31            0.2565    -3.6835    -7.3087 N.pl3   
  32 H32            0.8606     1.8301     0.0037 H       
  33 H33            0.5775    -0.3871     0.8448 H       
  34 H34           -1.4669    -1.4795     0.6172 H       
  35 H35           -2.0539     0.7837     1.5665 H       
  36 H36           -2.4394     1.3292    -0.0833 H       
  37 H37           -9.4978    -1.4659    -2.1642 H       
  38 H38          -11.4243    -3.1414    -0.3074 H       
  39 H39           -8.2282    -0.2605     3.2394 H       
  40 H40           -4.6047     0.3038     3.3833 H       
  41 H41           -0.8765     0.4899    -2.6220 H       
  42 H42            0.9377    -1.5584    -1.2344 H       
  43 H43            2.3834     0.3391    -1.3487 H       
  44 H44           -1.5232    -3.2507    -2.4561 H       
  45 H45            1.4465     0.5541    -6.8258 H       
  46 H46            0.6106    -3.7095    -8.2114 H       
  47 H47           -0.1558    -4.4740    -6.9266 H       
@<TRIPOS>BOND
   1    1    2 1
   2    1   32 1
   3    2    3 1
   4    2   20 1
   5    2   33 1
   6    3    4 1
   7    3   18 1
   8    3   34 1
   9    4    5 1
  10    4   35 1
  11    4   36 1
  12    5    6 1
  13    6    7 2
  14    6    8 1
  15    6   17 1
  16    8    9 1
  17    9   10 2
  18    9   11 1
  19    9   16 1
  20   11   12 1
  21   12   13 2
  22   12   14 1
  23   12   15 1
  24   14   37 1
  25   15   38 1
  26   16   39 1
  27   17   40 1
  28   18   19 1
  29   19   20 1
  30   19   22 1
  31   19   41 1
  32   20   21 1
  33   20   42 1
  34   21   43 1
  35   22   23 1
  36   22   26 1
  37   23   24 2
  38   23   44 1
  39   24   25 1
  40   25   26 ar
  41   25   30 ar
  42   26   27 ar
  43   27   28 ar
  44   28   29 ar
  45   28   45 1
  46   29   30 ar
  47   30   31 1
  48   31   46 1
  49   31   47 1

#	End of record

