#	Name: ASD03080106
#	Creating user name:	WinNT
#	Creation time:	15. 06. 2019 20:26

#	Modifying user name:	WinNT
#	Modification time:	15. 06. 2019 20:26

#	Program:	/corina/corina34_cracker 3.40 0067  02.08.2006

@<TRIPOS>MOLECULE
ASD03080106
  28   30    0    0    0
SMALL
NO_CHARGES


@<TRIPOS>ATOM
   1 N1             0.0175    -1.1399    -0.0042 N.1     
   2 C2             0.0021    -0.0041     0.0020 C.1     
   3 C3            -0.0173     1.4278     0.0099 C.ar    
   4 C4             1.1819     2.1444     0.0023 C.ar    
   5 C5             1.1645     3.5251     0.0104 C.ar    
   6 C6            -0.0360     4.2067     0.0260 C.ar    
   7 C7            -1.2425     3.5029     0.0338 C.ar    
   8 C8            -1.2330     2.1100     0.0194 C.ar    
   9 C9            -2.5272     4.2349     0.0510 C.2     
  10 N10           -3.7299     3.7015     0.0602 N.2     
  11 N11           -4.6205     4.6279     0.0745 N.2     
  12 C12           -4.0403     5.8087     0.0753 C.2     
  13 N13           -2.6877     5.5947     0.0663 N.pl3   
  14 C14           -4.7211     7.1211     0.0892 C.ar    
  15 C15           -6.1185     7.1977     0.1038 C.ar    
  16 C16           -6.7066     8.4505     0.1164 C.ar    
  17 C17           -5.9027     9.5759     0.1142 C.ar    
  18 N18           -4.5873     9.4733     0.0998 N.ar    
  19 C19           -3.9810     8.3044     0.0937 C.ar    
  20 H20            2.1245     1.6174    -0.0096 H       
  21 H21            2.0944     4.0744     0.0048 H       
  22 H22           -0.0423     5.2866     0.0326 H       
  23 H23           -2.1631     1.5611     0.0253 H       
  24 H24           -1.9885     6.2670     0.0645 H       
  25 H25           -6.7223     6.3023     0.1049 H       
  26 H26           -7.7821     8.5482     0.1276 H       
  27 H27           -6.3590    10.5547     0.1240 H       
  28 H28           -2.9019     8.2611     0.0819 H       
@<TRIPOS>BOND
   1    1    2 3
   2    2    3 1
   3    3    4 ar
   4    3    8 ar
   5    4    5 ar
   6    4   20 1
   7    5    6 ar
   8    5   21 1
   9    6    7 ar
  10    6   22 1
  11    7    8 ar
  12    7    9 1
  13    8   23 1
  14    9   10 2
  15    9   13 1
  16   10   11 1
  17   11   12 2
  18   12   13 1
  19   12   14 1
  20   13   24 1
  21   14   15 ar
  22   14   19 ar
  23   15   16 ar
  24   15   25 1
  25   16   17 ar
  26   16   26 1
  27   17   18 ar
  28   17   27 1
  29   18   19 ar
  30   19   28 1

#	End of record

