#	Name: ASD01913620
#	Creating user name:	WinNT
#	Creation time:	15. 06. 2019 20:01

#	Modifying user name:	WinNT
#	Modification time:	15. 06. 2019 20:01

#	Program:	/corina/corina34_cracker 3.40 0067  02.08.2006

@<TRIPOS>MOLECULE
ASD01913620
  34   36    0    0    0
SMALL
NO_CHARGES


@<TRIPOS>ATOM
   1 N1            -0.0169     1.3964     0.0097 N.2     
   2 N2             0.0021    -0.0041     0.0020 N.pl3   
   3 C3             1.2268     1.8293     0.0002 C.2     
   4 C4             2.0821     0.7142    -0.0140 C.2     
   5 C5             1.3051    -0.4067    -0.0126 C.2     
   6 C6             1.7880    -1.8056    -0.0238 C.ar    
   7 C7             1.6522     3.2506     0.0037 C.ar    
   8 N8             2.9446     3.5506    -0.0075 N.ar    
   9 C9             3.3637     4.7997    -0.0048 C.ar    
  10 C10            2.4646     5.8501     0.0099 C.ar    
  11 C11            1.1035     5.5806     0.0220 C.ar    
  12 C12            0.6914     4.2591     0.0131 C.ar    
  13 C13            0.8763    -2.8613    -0.0208 C.ar    
  14 C14            2.9582     7.2739     0.0133 C.3     
  15 C15            4.8429     5.0875    -0.0174 C.3     
  16 C16            1.3329    -4.1633    -0.0313 C.ar    
  17 C17            2.6917    -4.4228    -0.0441 C.ar    
  18 C18            3.6009    -3.3801    -0.0471 C.ar    
  19 C19            3.1568    -2.0737    -0.0430 C.ar    
  20 H20           -0.7746    -0.5852     0.0068 H       
  21 H21            3.1617     0.7403    -0.0242 H       
  22 H22            0.3817     6.3839     0.0336 H       
  23 H23           -0.3602     4.0134     0.0217 H       
  24 H24           -0.1847    -2.6600    -0.0101 H       
  25 H25            3.0673     7.6231    -1.0134 H       
  26 H26            2.2414     7.9058     0.5378 H       
  27 H27            3.9231     7.3228     0.5181 H       
  28 H28            5.1896     5.1624    -1.0481 H       
  29 H29            5.0345     6.0277     0.4996 H       
  30 H30            5.3743     4.2805     0.4870 H       
  31 H31            0.6280    -4.9816    -0.0290 H       
  32 H32            3.0442    -5.4437    -0.0515 H       
  33 H33            4.6605    -3.5891    -0.0568 H       
  34 H34            3.8676    -1.2606    -0.0457 H       
@<TRIPOS>BOND
   1    1    2 1
   2    1    3 2
   3    2    5 1
   4    2   20 1
   5    3    4 1
   6    3    7 1
   7    4    5 2
   8    4   21 1
   9    5    6 1
  10    6   13 ar
  11    6   19 ar
  12    7    8 ar
  13    7   12 ar
  14    8    9 ar
  15    9   10 ar
  16    9   15 1
  17   10   11 ar
  18   10   14 1
  19   11   12 ar
  20   11   22 1
  21   12   23 1
  22   13   16 ar
  23   13   24 1
  24   14   25 1
  25   14   26 1
  26   14   27 1
  27   15   28 1
  28   15   29 1
  29   15   30 1
  30   16   17 ar
  31   16   31 1
  32   17   18 ar
  33   17   32 1
  34   18   19 ar
  35   18   33 1
  36   19   34 1

#	End of record

