#	Name: ASD01410502
#	Creating user name:	WinNT
#	Creation time:	15. 06. 2019 19:17

#	Modifying user name:	WinNT
#	Modification time:	15. 06. 2019 19:17

#	Program:	/corina/corina34_cracker 3.40 0067  02.08.2006

@<TRIPOS>MOLECULE
ASD01410502
  86   90    0    0    0
SMALL
NO_CHARGES


@<TRIPOS>ATOM
   1 C1             1.4770     3.8241    -2.3481 C.ar    
   2 C2             2.4101     3.8559    -3.3750 C.ar    
   3 C3             3.5795     3.1323    -3.2481 C.ar    
   4 N4             3.8169     2.4152    -2.1665 N.ar    
   5 C5             2.9521     2.3597    -1.1668 C.ar    
   6 C6             1.7554     3.0623    -1.2265 C.ar    
   7 O7             3.2369     1.6094    -0.0729 O.3     
   8 C8             4.3700     0.8581    -0.0916 C.ar    
   9 C9             5.6131     1.4796    -0.0935 C.ar    
  10 C10            6.7695     0.7264    -0.1123 C.ar    
  11 C11            6.6983    -0.6595    -0.1300 C.ar    
  12 C12            5.4463    -1.2931    -0.1282 C.ar    
  13 C13            4.2817    -0.5220    -0.1029 C.ar    
  14 N14            7.8668    -1.4197    -0.1500 N.am    
  15 C15            8.3080    -1.9470    -1.3092 C.2     
  16 C16            8.6151    -1.6453     1.0891 C.3     
  17 O17            9.2799    -2.6724    -1.3143 O.2     
  18 C18            7.5936    -1.6352    -2.5989 C.3     
  19 C19            8.1317    -2.5377    -3.7111 C.3     
  20 C20            9.6316    -2.2918    -3.8865 C.3     
  21 C21            9.8681    -0.8269    -4.2592 C.3     
  22 C22            9.3300     0.0756    -3.1471 C.3     
  23 C23            7.8301    -0.1702    -2.9717 C.3     
  24 C24            2.1498     4.6711    -4.6155 C.3     
  25 C25            2.6909     6.0645    -4.4237 C.ar    
  26 C26            9.1731    -0.3144     1.5974 C.3     
  27 C27            7.6843    -2.2446     2.1452 C.3     
  28 C28           11.3680    -0.5811    -4.4346 C.3     
  29 C29            3.5886     6.5804    -5.3388 C.ar    
  30 C30            8.4658    -2.4803     3.4392 C.3     
  31 C31            9.0238    -1.1494     3.9475 C.3     
  32 C32            9.9546    -0.5500     2.8915 C.3     
  33 O33            9.7538    -1.3695     5.1561 O.3     
  34 C34            9.7391    -0.2583     6.0546 C.3     
  35 C35            4.0805     7.8636    -5.1531 C.ar    
  36 C36            3.6488     8.5824    -4.0491 C.ar    
  37 C37            2.7488     8.0003    -3.1763 C.ar    
  38 N38            2.2980     6.7793    -3.3874 N.ar    
  39 C39            2.2730     8.7721    -1.9726 C.3     
  40 C40            5.3604    -2.7644    -0.1474 C.2     
  41 O41            6.3746    -3.4327    -0.1123 O.2     
  42 O42            4.1571    -3.3685    -0.2039 O.3     
  43 C43            0.7734     2.9961    -0.0853 C.3     
  44 F44           -0.3435     3.7836    -0.3850 F       
  45 F45            0.3710     1.6702     0.1073 F       
  46 F46            1.3810     3.4732     1.0811 F       
  47 H47            0.5566     4.3844    -2.4206 H       
  48 H48            4.3087     3.1535    -4.0445 H       
  49 H49            5.6745     2.5577    -0.0804 H       
  50 H50            7.7319     1.2166    -0.1136 H       
  51 H51            3.3145    -1.0024    -0.1014 H       
  52 H52            9.4375    -2.3342     0.8966 H       
  53 H53            6.5250    -1.8103    -2.4740 H       
  54 H54            7.9632    -3.5813    -3.4455 H       
  55 H55            7.6150    -2.3121    -4.6439 H       
  56 H56           10.1483    -2.5174    -2.9536 H       
  57 H57           10.0149    -2.9348    -4.6788 H       
  58 H58            9.3514    -0.6014    -5.1921 H       
  59 H59            9.8467    -0.1499    -2.2142 H       
  60 H60            9.4985     1.1192    -3.4127 H       
  61 H61            7.3134     0.0553    -3.9046 H       
  62 H62            7.4468     0.4727    -2.1794 H       
  63 H63            2.6434     4.2037    -5.4676 H       
  64 H64            1.0766     4.7202    -4.7994 H       
  65 H65            9.8362     0.1126     0.8451 H       
  66 H66            8.3507     0.3746     1.7900 H       
  67 H67            6.8619    -1.5557     2.3377 H       
  68 H68            7.2868    -3.1928     1.7830 H       
  69 H69           11.7514    -1.2240    -5.2269 H       
  70 H70           11.5365     0.4626    -4.7002 H       
  71 H71           11.8847    -0.8066    -3.5017 H       
  72 H72            3.9034     5.9916    -6.1876 H       
  73 H73            7.8027    -2.9073     4.1915 H       
  74 H74            9.2882    -3.1692     3.2467 H       
  75 H75            8.2014    -0.4604     4.1401 H       
  76 H76           10.7770    -1.2390     2.6989 H       
  77 H77           10.3522     0.3981     3.2536 H       
  78 H78           10.1807     0.6101     5.5657 H       
  79 H79            8.7106    -0.0326     6.3365 H       
  80 H80           10.3146    -0.5048     6.9468 H       
  81 H81            4.7834     8.2927    -5.8518 H       
  82 H82            4.0113     9.5844    -3.8730 H       
  83 H83            1.3784     9.3374    -2.2337 H       
  84 H84            2.0415     8.0784    -1.1643 H       
  85 H85            3.0551     9.4589    -1.6490 H       
  86 H86            4.1513    -4.3354    -0.2144 H       
@<TRIPOS>BOND
   1    1    2 ar
   2    1    6 ar
   3    1   47 1
   4    2    3 ar
   5    2   24 1
   6    3    4 ar
   7    3   48 1
   8    4    5 ar
   9    5    6 ar
  10    5    7 1
  11    6   43 1
  12    7    8 1
  13    8    9 ar
  14    8   13 ar
  15    9   10 ar
  16    9   49 1
  17   10   11 ar
  18   10   50 1
  19   11   12 ar
  20   11   14 1
  21   12   13 ar
  22   12   40 1
  23   13   51 1
  24   14   15 am
  25   14   16 1
  26   15   17 2
  27   15   18 1
  28   16   27 1
  29   16   26 1
  30   16   52 1
  31   18   19 1
  32   18   23 1
  33   18   53 1
  34   19   20 1
  35   19   54 1
  36   19   55 1
  37   20   21 1
  38   20   56 1
  39   20   57 1
  40   21   22 1
  41   21   28 1
  42   21   58 1
  43   22   23 1
  44   22   59 1
  45   22   60 1
  46   23   61 1
  47   23   62 1
  48   24   25 1
  49   24   63 1
  50   24   64 1
  51   25   29 ar
  52   25   38 ar
  53   26   32 1
  54   26   65 1
  55   26   66 1
  56   27   30 1
  57   27   67 1
  58   27   68 1
  59   28   69 1
  60   28   70 1
  61   28   71 1
  62   29   35 ar
  63   29   72 1
  64   30   31 1
  65   30   73 1
  66   30   74 1
  67   31   32 1
  68   31   33 1
  69   31   75 1
  70   32   76 1
  71   32   77 1
  72   33   34 1
  73   34   78 1
  74   34   79 1
  75   34   80 1
  76   35   36 ar
  77   35   81 1
  78   36   37 ar
  79   36   82 1
  80   37   38 ar
  81   37   39 1
  82   39   83 1
  83   39   84 1
  84   39   85 1
  85   40   41 2
  86   40   42 1
  87   42   86 1
  88   43   44 1
  89   43   45 1
  90   43   46 1

#	End of record

