#	Name: ASD01150222
#	Creating user name:	WinNT
#	Creation time:	15. 06. 2019 19:03

#	Modifying user name:	WinNT
#	Modification time:	15. 06. 2019 19:03

#	Program:	/corina/corina34_cracker 3.40 0067  02.08.2006

@<TRIPOS>MOLECULE
ASD01150222
  44   46    0    0    0
SMALL
NO_CHARGES


@<TRIPOS>ATOM
   1 C1            -0.0159     1.3208     0.0093 C.ar    
   2 N2             0.0021    -0.0041     0.0020 N.ar    
   3 C3             1.1585    -0.6426    -0.0124 C.ar    
   4 C4             2.3547     0.0635    -0.0196 C.ar    
   5 N5             2.3510     1.3824    -0.0125 N.ar    
   6 C6             1.1963     2.0333     0.0016 C.ar    
   7 C7             1.1372     3.5095     0.0095 C.2     
   8 N8            -0.0775     4.1003     0.0234 N.am    
   9 C9            -1.2047     3.3716     0.0302 C.2     
  10 N10           -1.2039     2.0279     0.0302 N.am    
  11 C11           -0.1661     5.5626     0.0315 C.3     
  12 O12            2.1546     4.1747     0.0041 O.2     
  13 C13           -0.2092     6.0711    -1.3865 C.ar    
  14 C14           -1.4241     6.2318    -2.0262 C.ar    
  15 C15           -1.4643     6.6982    -3.3267 C.ar    
  16 C16           -0.2884     7.0042    -3.9882 C.ar    
  17 C17            0.9272     6.8432    -3.3474 C.ar    
  18 C18            0.9658     6.3821    -2.0450 C.ar    
  19 Cl19          -0.3380     7.5895    -5.6218 Cl      
  20 O20           -2.2725     3.9525     0.0436 O.2     
  21 C21           -2.4772     1.3035     0.0380 C.3     
  22 C22           -2.9293     1.0513    -1.4018 C.3     
  23 C23           -4.2591     0.2947    -1.3936 C.3     
  24 C24            1.1801    -2.1494    -0.0207 C.3     
  25 C25            3.6644    -0.6818    -0.0350 C.3     
  26 H26           -1.0718     5.8688     0.5550 H       
  27 H27            0.7048     5.9765     0.5396 H       
  28 H28           -2.3420     5.9925    -1.5099 H       
  29 H29           -2.4135     6.8233    -3.8265 H       
  30 H30            1.8455     7.0820    -3.8632 H       
  31 H31            1.9146     6.2564    -1.5446 H       
  32 H32           -2.3497     0.3503     0.5510 H       
  33 H33           -3.2299     1.8974     0.5565 H       
  34 H34           -3.0568     2.0046    -1.9148 H       
  35 H35           -2.1766     0.4575    -1.9202 H       
  36 H36           -4.1317    -0.6585    -0.8806 H       
  37 H37           -5.0118     0.8886    -0.8751 H       
  38 H38           -4.5812     0.1151    -2.4193 H       
  39 H39            1.1756    -2.5072    -1.0503 H       
  40 H40            2.0801    -2.5026     0.4827 H       
  41 H41            0.3004    -2.5283     0.4995 H       
  42 H42            3.9710    -0.8564    -1.0664 H       
  43 H43            4.4249    -0.0906     0.4750 H       
  44 H44            3.5446    -1.6376     0.4751 H       
@<TRIPOS>BOND
   1    1    2 ar
   2    1    6 ar
   3    1   10 1
   4    2    3 ar
   5    3    4 ar
   6    3   24 1
   7    4    5 ar
   8    4   25 1
   9    5    6 ar
  10    6    7 1
  11    7    8 am
  12    7   12 2
  13    8    9 am
  14    8   11 1
  15    9   10 am
  16    9   20 2
  17   10   21 1
  18   11   13 1
  19   11   26 1
  20   11   27 1
  21   13   14 ar
  22   13   18 ar
  23   14   15 ar
  24   14   28 1
  25   15   16 ar
  26   15   29 1
  27   16   17 ar
  28   16   19 1
  29   17   18 ar
  30   17   30 1
  31   18   31 1
  32   21   22 1
  33   21   32 1
  34   21   33 1
  35   22   23 1
  36   22   34 1
  37   22   35 1
  38   23   36 1
  39   23   37 1
  40   23   38 1
  41   24   39 1
  42   24   40 1
  43   24   41 1
  44   25   42 1
  45   25   43 1
  46   25   44 1

#	End of record

