#	Name: ASD01230231
#	Creating user name:	WinNT
#	Creation time:	15. 06. 2019 19:12

#	Modifying user name:	WinNT
#	Modification time:	15. 06. 2019 19:12

#	Program:	/corina/corina34_cracker 3.40 0067  02.08.2006

@<TRIPOS>MOLECULE
ASD01230231
  37   39    0    0    0
SMALL
NO_CHARGES


@<TRIPOS>ATOM
   1 C1            -0.0169     1.3980     0.0097 C.ar    
   2 C2             0.0021    -0.0041     0.0020 C.ar    
   3 C3             1.2324    -0.6605    -0.0132 C.ar    
   4 C4             2.3882     0.1054    -0.0201 C.ar    
   5 C5             2.2901     1.4830    -0.0118 C.ar    
   6 N6             1.1145     2.0833     0.0026 N.ar    
   7 N7            -1.2310     2.0713     0.0191 N.pl3   
   8 C8            -1.2643    -0.7756     0.0104 C.ar    
   9 C9            -1.4665    -1.7963    -0.9173 C.ar    
  10 C10           -2.6452    -2.5123    -0.9066 C.ar    
  11 C11           -3.6296    -2.2175     0.0267 C.ar    
  12 C12           -3.4313    -1.2017     0.9519 C.ar    
  13 C13           -2.2527    -0.4855     0.9498 C.ar    
  14 O14           -4.7901    -2.9245     0.0345 O.3     
  15 C15           -5.7600    -2.5687     1.0217 C.3     
  16 C16           -6.9714    -3.4535     0.8777 C.ar    
  17 C17           -7.0418    -4.6467     1.5719 C.ar    
  18 C18           -8.1549    -5.4591     1.4397 C.ar    
  19 C19           -9.1966    -5.0752     0.6120 C.ar    
  20 C20           -9.1240    -3.8819    -0.0810 C.ar    
  21 C21           -8.0141    -3.0689     0.0559 C.ar    
  22 F22           -8.2247    -6.6258     2.1173 F       
  23 H23            1.2837    -1.7392    -0.0192 H       
  24 H24            3.3572    -0.3714    -0.0316 H       
  25 H25            3.1905     2.0793    -0.0168 H       
  26 H26           -2.0626     1.5719     0.0203 H       
  27 H27           -1.2478     3.0412     0.0245 H       
  28 H28           -0.7012    -2.0259    -1.6439 H       
  29 H29           -2.8026    -3.3029    -1.6253 H       
  30 H30           -4.1992    -0.9745     1.6765 H       
  31 H31           -2.0971     0.3017     1.6726 H       
  32 H32           -5.3314    -2.6985     2.0155 H       
  33 H33           -6.0523    -1.5275     0.8852 H       
  34 H34           -6.2286    -4.9453     2.2168 H       
  35 H35          -10.0654    -5.7084     0.5078 H       
  36 H36           -9.9363    -3.5823    -0.7266 H       
  37 H37           -7.9601    -2.1343    -0.4826 H       
@<TRIPOS>BOND
   1    1    2 ar
   2    1    6 ar
   3    1    7 1
   4    2    3 ar
   5    2    8 1
   6    3    4 ar
   7    3   23 1
   8    4    5 ar
   9    4   24 1
  10    5    6 ar
  11    5   25 1
  12    7   26 1
  13    7   27 1
  14    8    9 ar
  15    8   13 ar
  16    9   10 ar
  17    9   28 1
  18   10   11 ar
  19   10   29 1
  20   11   12 ar
  21   11   14 1
  22   12   13 ar
  23   12   30 1
  24   13   31 1
  25   14   15 1
  26   15   16 1
  27   15   32 1
  28   15   33 1
  29   16   17 ar
  30   16   21 ar
  31   17   18 ar
  32   17   34 1
  33   18   19 ar
  34   18   22 1
  35   19   20 ar
  36   19   35 1
  37   20   21 ar
  38   20   36 1
  39   21   37 1

#	End of record

