#	Name: ASD01148117
#	Creating user name:	WinNT
#	Creation time:	15. 06. 2019 19:02

#	Modifying user name:	WinNT
#	Modification time:	15. 06. 2019 19:02

#	Program:	/corina/corina34_cracker 3.40 0067  02.08.2006

@<TRIPOS>MOLECULE
ASD01148117
  33   33    0    0    0
SMALL
NO_CHARGES


@<TRIPOS>ATOM
   1 C1            -0.0167     1.3772     0.0096 C.ar    
   2 C2             0.0021    -0.0041     0.0020 C.ar    
   3 C3             1.1759     2.0860     0.0020 C.ar    
   4 C4             2.3846     1.4052    -0.0132 C.ar    
   5 C5             2.3980     0.0239    -0.0207 C.ar    
   6 C6             1.2080    -0.6802    -0.0127 C.ar    
   7 C7            -1.3315     2.1135     0.0199 C.3     
   8 C8            -2.1348     1.7402    -1.2276 C.3     
   9 C9            -2.1229     1.7267     1.2708 C.3     
  10 C10            3.6820     2.1720    -0.0219 C.3     
  11 C11            4.5001     1.8043     1.2176 C.3     
  12 C12            4.4758     1.8169    -1.2808 C.3     
  13 O13            1.1601     3.4449     0.0090 O.3     
  14 N14            1.2252    -2.1601    -0.0213 N.pl3   
  15 O15            2.2870    -2.7568    -0.0354 O.2     
  16 O16            0.1776    -2.7814    -0.0142 O.2     
  17 H17           -0.9261    -0.5563     0.0079 H       
  18 H18            3.3387    -0.5065    -0.0325 H       
  19 H19           -1.1463     3.1877     0.0248 H       
  20 H20           -3.0858     2.2728    -1.2202 H       
  21 H21           -1.5709     2.0159    -2.1188 H       
  22 H22           -2.3199     0.6661    -1.2326 H       
  23 H23           -1.5507     1.9926     2.1595 H       
  24 H24           -3.0739     2.2592     1.2782 H       
  25 H25           -2.3081     0.6525     1.2658 H       
  26 H26            3.4719     3.2415    -0.0145 H       
  27 H27            4.7101     0.7348     1.2101 H       
  28 H28            5.4384     2.3589     1.2112 H       
  29 H29            3.9346     2.0573     2.1144 H       
  30 H30            3.8929     2.0788    -2.1638 H       
  31 H31            5.4141     2.3715    -1.2871 H       
  32 H32            4.6858     0.7473    -1.2882 H       
  33 H33            1.1638     3.8337     0.8944 H       
@<TRIPOS>BOND
   1    1    2 ar
   2    1    3 ar
   3    1    7 1
   4    2    6 ar
   5    2   17 1
   6    3    4 ar
   7    3   13 1
   8    4    5 ar
   9    4   10 1
  10    5    6 ar
  11    5   18 1
  12    6   14 1
  13    7    8 1
  14    7    9 1
  15    7   19 1
  16    8   20 1
  17    8   21 1
  18    8   22 1
  19    9   23 1
  20    9   24 1
  21    9   25 1
  22   10   11 1
  23   10   12 1
  24   10   26 1
  25   11   27 1
  26   11   28 1
  27   11   29 1
  28   12   30 1
  29   12   31 1
  30   12   32 1
  31   13   33 1
  32   14   15 2
  33   14   16 2

#	End of record

