#	Name: ASD01940309
#	Creating user name:	WinNT
#	Creation time:	15. 06. 2019 20:12

#	Modifying user name:	WinNT
#	Modification time:	15. 06. 2019 20:12

#	Program:	/corina/corina34_cracker 3.40 0067  02.08.2006

@<TRIPOS>MOLECULE
ASD01940309
  43   45    0    0    0
SMALL
NO_CHARGES


@<TRIPOS>ATOM
   1 C1            -1.1158     4.1065     1.4576 C.3     
   2 C2            -1.4523     3.4232     2.7936 C.3     
   3 C3            -0.4062     4.3470     3.4395 C.3     
   4 C4             0.2642     4.4237     2.0576 C.3     
   5 S5            -1.0513     2.9617     0.0519 S.o2    
   6 O6             0.0604     2.0850     0.1734 O.2     
   7 O7            -2.3484     2.4632    -0.2451 O.2     
   8 N8            -0.6754     3.9206    -1.2449 N.am    
   9 C9             0.5421     4.6203    -1.2714 C.ar    
  10 C10            0.5466     6.0129    -1.2834 C.ar    
  11 C11            1.7533     6.7007    -1.3092 C.ar    
  12 C12            2.9495     6.0018    -1.3228 C.ar    
  13 C13            2.9463     4.6173    -1.3113 C.ar    
  14 C14            1.7457     3.9244    -1.2798 C.ar    
  15 O15            1.7454     2.5639    -1.2625 O.3     
  16 C16            3.0151     1.9161    -1.1620 C.3     
  17 N17           -0.6641     6.7192    -1.2701 N.pl3   
  18 C18           -0.6948     8.0616    -1.6606 C.ar    
  19 C19           -0.5800     8.3994    -3.0056 C.ar    
  20 C20           -0.6108     9.7276    -3.3873 C.ar    
  21 C21           -0.7556    10.7195    -2.4333 C.ar    
  22 C22           -0.8698    10.3860    -1.0961 C.ar    
  23 C23           -0.8456     9.0600    -0.7079 C.ar    
  24 I24           -0.8010    12.7313    -3.0160 I       
  25 F25           -0.4382     7.4309    -3.9367 F       
  26 F26            4.1218     6.6729    -1.3478 F       
  27 F27            1.7603     8.0516    -1.3214 F       
  28 H28           -1.7184     4.9921     1.2563 H       
  29 H29           -2.4703     3.6100     3.1354 H       
  30 H30           -1.1813     2.3678     2.8247 H       
  31 H31           -0.8148     5.2985     3.7799 H       
  32 H32            0.2053     3.8534     4.1947 H       
  33 H33            1.0044     3.6419     1.8875 H       
  34 H34            0.6319     5.4182     1.8052 H       
  35 H35           -1.2961     3.9990    -1.9862 H       
  36 H36            3.8808     4.0761    -1.3223 H       
  37 H37            2.8678     0.8400    -1.0703 H       
  38 H38            3.6026     2.1276    -2.0554 H       
  39 H39            3.5435     2.2866    -0.2835 H       
  40 H40           -1.4807     6.2767    -0.9900 H       
  41 H41           -0.5214     9.9914    -4.4308 H       
  42 H42           -0.9823    11.1628    -0.3543 H       
  43 H43           -0.9398     8.8008     0.3363 H       
@<TRIPOS>BOND
   1    1    2 1
   2    1    4 1
   3    1    5 1
   4    1   28 1
   5    2    3 1
   6    2   29 1
   7    2   30 1
   8    3    4 1
   9    3   31 1
  10    3   32 1
  11    4   33 1
  12    4   34 1
  13    5    6 2
  14    5    7 2
  15    5    8 am
  16    8    9 1
  17    8   35 1
  18    9   10 ar
  19    9   14 ar
  20   10   11 ar
  21   10   17 1
  22   11   12 ar
  23   11   27 1
  24   12   13 ar
  25   12   26 1
  26   13   14 ar
  27   13   36 1
  28   14   15 1
  29   15   16 1
  30   16   37 1
  31   16   38 1
  32   16   39 1
  33   17   18 1
  34   17   40 1
  35   18   19 ar
  36   18   23 ar
  37   19   20 ar
  38   19   25 1
  39   20   21 ar
  40   20   41 1
  41   21   22 ar
  42   21   24 1
  43   22   23 ar
  44   22   42 1
  45   23   43 1

#	End of record

