#	Name: ASD01911155
#	Creating user name:	WinNT
#	Creation time:	15. 06. 2019 19:57

#	Modifying user name:	WinNT
#	Modification time:	15. 06. 2019 19:57

#	Program:	/corina/corina34_cracker 3.40 0067  02.08.2006

@<TRIPOS>MOLECULE
ASD01911155
  43   46    0    0    0
SMALL
NO_CHARGES


@<TRIPOS>ATOM
   1 C1            -0.0167     1.3769     0.0096 C.ar    
   2 C2             0.0021    -0.0041     0.0020 C.ar    
   3 C3             1.2148    -0.6805    -0.0132 C.ar    
   4 C4             2.4052     0.0345    -0.0207 C.ar    
   5 C5             2.3798     1.4153    -0.0130 C.ar    
   6 C6             1.1705     2.0860     0.0021 C.ar    
   7 N7             1.2372    -2.0811    -0.0204 N.pl3   
   8 N8             0.3284    -2.9225     0.6337 N.2     
   9 C9             0.6733    -4.1704     0.3942 C.2     
  10 C10            1.8185    -4.1607    -0.4242 C.2     
  11 C11            2.1431    -2.8640    -0.6697 C.2     
  12 C12           -0.0242    -5.3784     0.9003 C.ar    
  13 C13           -1.1531    -5.2476     1.7066 C.ar    
  14 C14           -1.7980    -6.3746     2.1746 C.ar    
  15 C15           -1.3256    -7.6320     1.8447 C.ar    
  16 C16           -0.2051    -7.7677     1.0450 C.ar    
  17 C17            0.4439    -6.6476     0.5664 C.ar    
  18 N18            3.2146    -2.4161    -1.4401 N.am    
  19 C19            4.0437    -3.3047    -2.0226 C.2     
  20 C20            5.1790    -2.8300    -2.8388 C.ar    
  21 O21            3.8569    -4.4971    -1.8761 O.2     
  22 C22            6.0412    -3.7491    -3.4446 C.ar    
  23 C23            7.1022    -3.2970    -4.2081 C.ar    
  24 C24            7.3108    -1.9409    -4.3726 C.ar    
  25 C25            6.4598    -1.0242    -3.7742 C.ar    
  26 C26            5.3932    -1.4610    -3.0140 C.ar    
  27 F27            6.6718     0.2998    -3.9397 F       
  28 F28            5.8387    -5.0751    -3.2843 F       
  29 H29           -0.9595     1.9036     0.0169 H       
  30 H30           -0.9254    -0.5573     0.0082 H       
  31 H31            3.3499    -0.4887    -0.0321 H       
  32 H32            3.3053     1.9719    -0.0185 H       
  33 H33            1.1533     3.1658     0.0080 H       
  34 H34            2.3434    -5.0290    -0.7944 H       
  35 H35           -1.5226    -4.2663     1.9651 H       
  36 H36           -2.6728    -6.2744     2.8000 H       
  37 H37           -1.8332    -8.5112     2.2131 H       
  38 H38            0.1597    -8.7519     0.7907 H       
  39 H39            1.3187    -6.7546    -0.0579 H       
  40 H40            3.3636    -1.4647    -1.5570 H       
  41 H41            7.7693    -4.0055    -4.6764 H       
  42 H42            8.1408    -1.5934    -4.9698 H       
  43 H43            4.7313    -0.7457    -2.5487 H       
@<TRIPOS>BOND
   1    1    2 ar
   2    1    6 ar
   3    1   29 1
   4    2    3 ar
   5    2   30 1
   6    3    4 ar
   7    3    7 1
   8    4    5 ar
   9    4   31 1
  10    5    6 ar
  11    5   32 1
  12    6   33 1
  13    7    8 1
  14    7   11 1
  15    8    9 2
  16    9   10 1
  17    9   12 1
  18   10   11 2
  19   10   34 1
  20   11   18 1
  21   12   13 ar
  22   12   17 ar
  23   13   14 ar
  24   13   35 1
  25   14   15 ar
  26   14   36 1
  27   15   16 ar
  28   15   37 1
  29   16   17 ar
  30   16   38 1
  31   17   39 1
  32   18   19 am
  33   18   40 1
  34   19   20 1
  35   19   21 2
  36   20   22 ar
  37   20   26 ar
  38   22   23 ar
  39   22   28 1
  40   23   24 ar
  41   23   41 1
  42   24   25 ar
  43   24   42 1
  44   25   26 ar
  45   25   27 1
  46   26   43 1

#	End of record

