#	Name: ASD01880902
#	Creating user name:	WinNT
#	Creation time:	15. 06. 2019 19:41

#	Modifying user name:	WinNT
#	Modification time:	15. 06. 2019 19:41

#	Program:	/corina/corina34_cracker 3.40 0067  02.08.2006

@<TRIPOS>MOLECULE
ASD01880902
  55   58    0    0    0
SMALL
NO_CHARGES


@<TRIPOS>ATOM
   1 N1            -0.0158     1.3134     0.0093 N.ar    
   2 C2             0.0021    -0.0041     0.0020 C.ar    
   3 N3             1.1313    -0.6835    -0.0124 N.ar    
   4 C4             2.3010    -0.0550    -0.0202 C.ar    
   5 C5             2.3188     1.3391    -0.0129 C.ar    
   6 C6             1.1111     2.0106     0.0022 C.ar    
   7 C7             3.6226     2.0948    -0.0208 C.3     
   8 O8             4.0223     2.3409    -1.3705 O.3     
   9 C9             5.1847     3.0166    -1.5553 C.ar    
  10 C10            5.6324     3.2899    -2.8442 C.ar    
  11 C11            6.8081     3.9738    -3.0298 C.ar    
  12 C12            7.5609     4.3989    -1.9300 C.ar    
  13 C13            7.1064     4.1221    -0.6377 C.ar    
  14 C14            5.9238     3.4399    -0.4572 C.ar    
  15 C15            7.5591     4.4223    -4.2587 C.3     
  16 N16            8.7597     5.1137    -3.7755 N.am    
  17 C17            8.7568     5.0978    -2.4316 C.2     
  18 O18            9.6184     5.5907    -1.7295 O.2     
  19 C19            7.9071     4.5734     0.5566 C.3     
  20 C20            1.0761     3.5172     0.0102 C.3     
  21 C21            1.0506     4.0265    -1.4079 C.ar    
  22 C22           -0.1579     4.2323    -2.0468 C.ar    
  23 C23           -0.1813     4.6994    -3.3476 C.ar    
  24 C24            1.0038     4.9613    -4.0094 C.ar    
  25 C25            2.2122     4.7565    -3.3702 C.ar    
  26 C26            2.2355     4.2934    -2.0679 C.ar    
  27 C27            9.4279     7.1801    -4.9002 C.3     
  28 C28            9.7921     5.7209    -4.6192 C.3     
  29 O29            3.4596    -0.7578    -0.0346 O.3     
  30 C30            3.3540    -2.1828    -0.0408 C.3     
  31 H31           -0.9344    -0.5420     0.0084 H       
  32 H32            3.4953     3.0442     0.4993 H       
  33 H33            4.3879     1.5043     0.4829 H       
  34 H34            5.0559     2.9640    -3.6973 H       
  35 H35            5.5730     3.2267     0.5418 H       
  36 H36            7.8409     3.5590    -4.8615 H       
  37 H37            6.9441     5.1049    -4.8452 H       
  38 H38            7.5852     5.5715     0.8538 H       
  39 H39            7.7498     3.8798     1.3826 H       
  40 H40            8.9656     4.5953     0.2971 H       
  41 H41            0.1829     3.8571     0.5344 H       
  42 H42            1.9623     3.8986     0.5173 H       
  43 H43           -1.0838     4.0276    -1.5298 H       
  44 H44           -1.1254     4.8595    -3.8470 H       
  45 H45            0.9855     5.3256    -5.0259 H       
  46 H46            3.1381     4.9608    -3.8873 H       
  47 H47            3.1797     4.1334    -1.5685 H       
  48 H48           10.1960     7.6319    -5.5279 H       
  49 H49            8.4675     7.2224    -5.4141 H       
  50 H50            9.3607     7.7256    -3.9590 H       
  51 H51           10.7525     5.6786    -4.1053 H       
  52 H52            9.8593     5.1754    -5.5604 H       
  53 H53            4.3519    -2.6211    -0.0523 H       
  54 H54            2.8230    -2.5117     0.8526 H       
  55 H55            2.8064    -2.5027    -0.9273 H       
@<TRIPOS>BOND
   1    1    2 ar
   2    1    6 ar
   3    2    3 ar
   4    2   31 1
   5    3    4 ar
   6    4    5 ar
   7    4   29 1
   8    5    6 ar
   9    5    7 1
  10    6   20 1
  11    7    8 1
  12    7   32 1
  13    7   33 1
  14    8    9 1
  15    9   10 ar
  16    9   14 ar
  17   10   11 ar
  18   10   34 1
  19   11   12 ar
  20   11   15 1
  21   12   13 ar
  22   12   17 1
  23   13   14 ar
  24   13   19 1
  25   14   35 1
  26   15   16 1
  27   15   36 1
  28   15   37 1
  29   16   17 am
  30   16   28 1
  31   17   18 2
  32   19   38 1
  33   19   39 1
  34   19   40 1
  35   20   21 1
  36   20   41 1
  37   20   42 1
  38   21   22 ar
  39   21   26 ar
  40   22   23 ar
  41   22   43 1
  42   23   24 ar
  43   23   44 1
  44   24   25 ar
  45   24   45 1
  46   25   26 ar
  47   25   46 1
  48   26   47 1
  49   27   28 1
  50   27   48 1
  51   27   49 1
  52   27   50 1
  53   28   51 1
  54   28   52 1
  55   29   30 1
  56   30   53 1
  57   30   54 1
  58   30   55 1

#	End of record

