#	Name: ASD06600022
#	Creating user name:	WinNT
#	Creation time:	15. 06. 2019 21:06

#	Modifying user name:	WinNT
#	Modification time:	15. 06. 2019 21:06

#	Program:	/corina/corina34_cracker 3.40 0067  02.08.2006

@<TRIPOS>MOLECULE
ASD06600022
 289  292    0    0    0
SMALL
NO_CHARGES


@<TRIPOS>ATOM
   1 C1            -0.6506    -1.6225     1.6362 C.2     
   2 O2            -0.6814    -2.8086     1.3848 O.2     
   3 N3             1.7580    -1.9061     1.7209 N.am    
   4 C4             0.6710    -0.9339     1.8603 C.3     
   5 C5             0.8474     0.1801     0.8265 C.3     
   6 C6             2.1094     0.9476     1.1254 C.2     
   7 C7             3.1260     1.1634     0.2689 C.2     
   8 N8             4.0623     1.8998     0.9432 N.pl3   
   9 C9             3.5850     2.1085     2.1891 C.2     
  10 N10            2.4144     1.5404     2.2892 N.2     
  11 C11           -4.0987    -0.5782     1.0173 C.2     
  12 O12           -3.7814     0.5847     0.8835 O.2     
  13 N13           -1.7979    -0.9192     1.7097 N.am    
  14 C14           -3.0823    -1.5874     1.4859 C.3     
  15 C15           -3.5605    -2.2240     2.7924 C.3     
  16 C16           -7.7329    -0.4703     0.6380 C.2     
  17 O17           -7.8799    -1.5300     1.2092 O.2     
  18 N18           -5.3602    -0.9679     0.7470 N.am    
  19 C19           -6.3483     0.0132     0.2915 C.3     
  20 C20           -6.2332     0.1869    -1.2243 C.3     
  21 C21          -11.1529     0.4239    -0.2934 C.2     
  22 O22          -10.7774     1.1828    -1.1618 O.2     
  23 N23           -8.8079     0.2750     0.3132 N.am    
  24 C24          -10.1539    -0.1950     0.6501 C.3     
  25 C25          -10.4907     0.2097     2.0866 C.3     
  26 C26           -9.5684    -0.5062     3.0395 C.2     
  27 C27           -8.7847     0.0740     3.9683 C.2     
  28 N28           -8.1175    -0.9346     4.6096 N.pl3   
  29 C29           -8.5170    -2.0968     4.0499 C.2     
  30 N30           -9.3885    -1.8332     3.1150 N.2     
  31 C31          -14.7885     0.7802    -0.4292 C.2     
  32 O32          -14.9284     0.3517     0.6968 O.2     
  33 N33          -12.4635     0.1340    -0.1723 N.am    
  34 C34          -13.4346     0.7356    -1.0895 C.3     
  35 C35          -13.5174    -0.1031    -2.3665 C.3     
  36 C36          -18.2340     1.3587    -1.5048 C.2     
  37 O37          -17.9300     1.3381    -2.6787 O.2     
  38 N38          -15.8438     1.2963    -1.0898 N.am    
  39 C39          -17.1599     1.3397    -0.4478 C.3     
  40 C40          -17.2671     2.6014     0.4110 C.3     
  41 C41          -16.2742     2.5250     1.5421 C.ar    
  42 C42          -14.9968     3.0268     1.3741 C.ar    
  43 C43          -14.0846     2.9576     2.4093 C.ar    
  44 C44          -14.4514     2.3843     3.6182 C.ar    
  45 O45          -13.5559     2.3155     4.6382 O.3     
  46 C46          -15.7338     1.8819     3.7844 C.ar    
  47 C47          -16.6439     1.9583     2.7479 C.ar    
  48 C48          -21.8203     2.0584    -1.6137 C.2     
  49 O49          -21.8333     2.4604    -0.4695 O.2     
  50 N50          -19.5323     1.3987    -1.1455 N.am    
  51 C51          -20.5764     1.4172    -2.1730 C.3     
  52 C52          -20.8919    -0.0161    -2.6054 C.3     
  53 C53          -19.6646    -0.6252    -3.2864 C.3     
  54 C54          -19.9801    -2.0585    -3.7189 C.3     
  55 N55          -18.8049    -2.6417    -4.3709 N.pl3   
  56 C56          -18.8515    -3.9308    -4.8464 C.2     
  57 N57          -19.9413    -4.6341    -4.7171 N.2     
  58 N58          -17.7487    -4.4781    -5.4584 N.pl3   
  59 C59          -25.3326     2.3087    -2.5954 C.2     
  60 O60          -25.1952     1.5104    -3.4980 O.2     
  61 N61          -22.9182     2.1852    -2.3851 N.am    
  62 C62          -24.1273     2.8086    -1.8414 C.3     
  63 C63          -24.0279     4.3282    -1.9884 C.3     
  64 C64          -22.8965     4.8424    -1.1360 C.2     
  65 C65          -21.8623     5.5924    -1.5621 C.2     
  66 N66          -21.0737     5.8363    -0.4702 N.pl3   
  67 C67          -21.6538     5.2264     0.5858 C.2     
  68 N68          -22.7462     4.6383     0.1811 N.2     
  69 C69          -28.8428     3.2805    -2.9073 C.2     
  70 O70          -28.6705     4.3102    -2.2902 O.2     
  71 N71          -26.5634     2.7489    -2.2666 N.am    
  72 C72          -27.7351     2.2629    -2.9996 C.3     
  73 C73          -28.2053     0.9405    -2.3905 C.3     
  74 C74          -27.1284    -0.1268    -2.5954 C.3     
  75 C75          -27.5987    -1.4493    -1.9863 C.3     
  76 N76          -26.5676    -2.4713    -2.1825 N.pl3   
  77 C77          -26.7682    -3.7487    -1.7154 C.2     
  78 N78          -27.8757    -4.0504    -1.0981 N.2     
  79 N79          -25.8005    -4.7078    -1.8995 N.pl3   
  80 C80          -32.4311     3.3488    -3.6023 C.2     
  81 O81          -32.4746     2.1511    -3.7880 O.2     
  82 N82          -30.0250     3.0463    -3.5107 N.am    
  83 C83          -31.1019     4.0355    -3.4211 C.3     
  84 C84          -30.9188     5.0892    -4.5152 C.3     
  85 C85          -29.6287     5.8710    -4.2596 C.3     
  86 C86          -29.4457     6.9247    -5.3537 C.3     
  87 N87          -28.2104     7.6733    -5.1089 N.pl3   
  88 C88          -27.8346     8.6792    -5.9674 C.2     
  89 N89          -26.7356     9.3453    -5.7497 N.2     
  90 N90          -28.6181     8.9826    -7.0557 N.pl3   
  91 C91          -35.8202     4.4384    -4.3907 C.2     
  92 O92          -35.6808     5.6124    -4.1201 O.2     
  93 N93          -33.5715     4.0658    -3.5579 N.am    
  94 C94          -34.8548     3.4191    -3.8429 C.3     
  95 C95          -35.4217     2.8208    -2.5539 C.3     
  96 C96          -36.6833     2.0175    -2.8764 C.3     
  97 C97          -36.3085     0.7944    -3.7158 C.3     
  98 C98          -37.3430     1.5595    -1.5741 C.3     
  99 C99          -39.1462     4.3168    -5.8814 C.2     
 100 O100         -39.1910     3.1049    -5.8950 O.2     
 101 N101         -36.8385     4.0453    -5.1813 N.am    
 102 C102         -37.8374     5.0195    -5.6278 C.3     
 103 C103         -37.3580     5.6863    -6.9188 C.3     
 104 C104         -38.3193     6.8148    -7.2973 C.3     
 105 C105         -38.2544     7.9168    -6.2381 C.3     
 106 C106         -37.9197     7.3904    -8.6574 C.3     
 107 C107         -42.4226     5.2905    -7.1775 C.2     
 108 O108         -42.0494     6.4159    -7.4324 O.2     
 109 N109         -40.2668     5.0351    -6.0929 N.am    
 110 C110         -41.5242     4.3541    -6.4114 C.3     
 111 C111         -42.2168     3.9295    -5.1149 C.3     
 112 O112         -42.5935     5.0915    -4.3735 O.3     
 113 C113         -45.2847     6.6485    -7.3565 C.2     
 114 O114         -45.1210     6.5153    -6.1668 O.2     
 115 N115         -43.6409     4.8773    -7.5794 N.am    
 116 C116         -44.5143     5.7876    -8.3242 C.3     
 117 C117         -45.4927     4.9744    -9.1740 C.3     
 118 C118         -46.3206     5.9213   -10.0451 C.3     
 119 C119         -47.2102     5.1039   -10.9839 C.3     
 120 C120         -46.4245     4.1786    -8.2578 C.3     
 121 O121         -46.1528     7.5633    -7.8163 O.3     
 122 C122           2.9356    -1.6937     2.3411 C.2     
 123 O123           3.0954    -0.6978     3.0146 O.2     
 124 C124          20.5114    -6.4645     6.7592 C.3     
 125 C125          19.3762    -5.4492     6.9047 C.3     
 126 C126          18.1604    -5.9259     6.1075 C.3     
 127 C127          17.0251    -4.9105     6.2531 C.3     
 128 C128          15.8093    -5.3872     5.4559 C.3     
 129 C129          14.6740    -4.3719     5.6015 C.3     
 130 C130          13.4582    -4.8485     4.8043 C.3     
 131 C131          12.3229    -3.8332     4.9498 C.3     
 132 C132          11.1071    -4.3098     4.1526 C.3     
 133 C133           9.9718    -3.2945     4.2982 C.3     
 134 C134           8.7560    -3.7711     3.5010 C.3     
 135 C135           7.6207    -2.7558     3.6466 C.3     
 136 C136           6.4049    -3.2325     2.8494 C.3     
 137 C137           5.2697    -2.2171     2.9949 C.3     
 138 C138           4.0538    -2.6938     2.1977 C.3     
 139 H139           1.6303    -2.7026     1.1823 H       
 140 H140           0.6924    -0.5061     2.8626 H       
 141 H141           0.9150    -0.2564    -0.1700 H       
 142 H142          -0.0073     0.8551     0.8703 H       
 143 H143           3.1903     0.8209    -0.7533 H       
 144 H144           4.9104     2.2132     0.5917 H       
 145 H145           4.0870     2.6581     2.9716 H       
 146 H146          -1.7733     0.0294     1.9107 H       
 147 H147          -2.9621    -2.3610     0.7274 H       
 148 H148          -3.6807    -1.4504     3.5508 H       
 149 H149          -4.5162    -2.7211     2.6258 H       
 150 H150          -2.8254    -2.9539     3.1313 H       
 151 H151          -5.6140    -1.8980     0.8540 H       
 152 H152          -6.1639     0.9691     0.7818 H       
 153 H153          -6.4176    -0.7690    -1.7146 H       
 154 H154          -6.9684     0.9168    -1.5632 H       
 155 H155          -5.2317     0.5366    -1.4749 H       
 156 H156          -8.6903     1.1226    -0.1437 H       
 157 H157         -10.1929    -1.2805     0.5597 H       
 158 H158         -10.3654     1.2865     2.1997 H       
 159 H159         -11.5231    -0.0612     2.3078 H       
 160 H160          -8.6988     1.1318     4.1685 H       
 161 H161          -7.4773    -0.8334     5.3313 H       
 162 H162          -8.1751    -3.0817     4.3321 H       
 163 H163         -12.7638    -0.4730     0.5222 H       
 164 H164         -13.1189     1.7484    -1.3398 H       
 165 H165         -13.8331    -1.1159    -2.1162 H       
 166 H166         -14.2399     0.3445    -3.0489 H       
 167 H167         -12.5381    -0.1353    -2.8441 H       
 168 H168         -15.7318     1.6390    -1.9903 H       
 169 H169         -17.2860     0.4594     0.1824 H       
 170 H170         -17.0533     3.4772    -0.2017 H       
 171 H171         -18.2755     2.6796     0.8174 H       
 172 H172         -14.7118     3.4730     0.4328 H       
 173 H173         -13.0868     3.3491     2.2774 H       
 174 H174         -13.5682     3.0840     5.2250 H       
 175 H175         -16.0216     1.4349     4.7244 H       
 176 H176         -17.6437     1.5713     2.8781 H       
 177 H177         -19.7755     1.4152    -0.2066 H       
 178 H178         -20.2289     1.9883    -3.0339 H       
 179 H179         -21.1540    -0.6104    -1.7301 H       
 180 H180         -21.7288    -0.0091    -3.3037 H       
 181 H181         -19.4025    -0.0309    -4.1618 H       
 182 H182         -18.8277    -0.6322    -2.5881 H       
 183 H183         -20.2422    -2.6527    -2.8435 H       
 184 H184         -20.8170    -2.0515    -4.4171 H       
 185 H185         -17.9939    -2.1183    -4.4671 H       
 186 H186         -19.9742    -5.5436    -5.0526 H       
 187 H187         -16.9378    -3.9547    -5.5546 H       
 188 H188         -17.7816    -5.3876    -5.7939 H       
 189 H189         -22.9078     1.8637    -3.3002 H       
 190 H190         -24.2260     2.5513    -0.7868 H       
 191 H191         -23.8404     4.5808    -3.0321 H       
 192 H192         -24.9630     4.7864    -1.6661 H       
 193 H193         -21.6884     5.9352    -2.5713 H       
 194 H194         -20.2516     6.3510    -0.4573 H       
 195 H195         -21.2782     5.2285     1.5984 H       
 196 H196         -26.6733     3.3874    -1.5447 H       
 197 H197         -27.4706     2.1075    -4.0455 H       
 198 H198         -28.3850     1.0753    -1.3239 H       
 199 H199         -29.1278     0.6240    -2.8772 H       
 200 H200         -26.9488    -0.2616    -3.6620 H       
 201 H201         -26.2059     0.1897    -2.1086 H       
 202 H202         -27.7784    -1.3145    -0.9197 H       
 203 H203         -28.5212    -1.7657    -2.4730 H       
 204 H204         -25.7433    -2.2467    -2.6419 H       
 205 H205         -28.0173    -4.9517    -0.7685 H       
 206 H206         -24.9762    -4.4832    -2.3589 H       
 207 H207         -25.9420    -5.6090    -1.5700 H       
 208 H208         -30.1628     2.2227    -4.0043 H       
 209 H209         -31.0721     4.5174    -2.4439 H       
 210 H210         -30.8596     4.5980    -5.4864 H       
 211 H211         -31.7667     5.7741    -4.5055 H       
 212 H212         -29.6879     6.3622    -3.2883 H       
 213 H213         -28.7808     5.1861    -4.2692 H       
 214 H214         -29.3865     6.4336    -6.3249 H       
 215 H215         -30.2936     7.6096    -5.3440 H       
 216 H216         -27.6576     7.4593    -4.3411 H       
 217 H217         -26.4705    10.0550    -6.3554 H       
 218 H218         -29.4360     8.4870    -7.2177 H       
 219 H219         -28.3530     9.6923    -7.6614 H       
 220 H220         -33.5426     5.0099    -3.3373 H       
 221 H221         -34.7074     2.6270    -4.5770 H       
 222 H222         -34.6789     2.1643    -2.1007 H       
 223 H223         -35.6696     3.6233    -1.8592 H       
 224 H224         -37.3791     2.6427    -3.4359 H       
 225 H225         -35.6567     0.1413    -3.1355 H       
 226 H226         -37.2129     0.2525    -3.9923 H       
 227 H227         -35.7889     1.1181    -4.6176 H       
 228 H228         -37.6101     2.4308    -0.9761 H       
 229 H229         -38.2418     0.9872    -1.8038 H       
 230 H230         -36.6473     0.9342    -1.0146 H       
 231 H231         -36.9100     3.1174    -5.4547 H       
 232 H232         -37.9754     5.7777    -4.8569 H       
 233 H233         -36.3592     6.0954    -6.7672 H       
 234 H234         -37.3305     4.9482    -7.7204 H       
 235 H235         -39.3352     6.4234    -7.3527 H       
 236 H236         -38.9830     8.6921    -6.4752 H       
 237 H237         -38.4798     7.4937    -5.2592 H       
 238 H238         -37.2542     8.3499    -6.2251 H       
 239 H239         -37.9659     6.6053    -9.4120 H       
 240 H240         -38.6045     8.1944    -8.9271 H       
 241 H241         -36.9038     7.7817    -8.6020 H       
 242 H242         -40.2408     6.0030    -6.0343 H       
 243 H243         -41.3164     3.4725    -7.0179 H       
 244 H244         -43.1062     3.3459    -5.3524 H       
 245 H245         -41.5334     3.3242    -4.5193 H       
 246 H246         -43.0391     4.8974    -3.5375 H       
 247 H247         -43.9394     3.9772    -7.3756 H       
 248 H248         -43.9098     6.4217    -8.9728 H       
 249 H249         -44.9362     4.2874    -9.8114 H       
 250 H250         -46.9443     6.5489    -9.4085 H       
 251 H251         -45.6530     6.5506   -10.6336 H       
 252 H252         -47.8778     4.4745   -10.3955 H       
 253 H253         -47.8000     5.7784   -11.6046 H       
 254 H254         -46.5866     4.4763   -11.6206 H       
 255 H255         -47.1216     3.5992    -8.8632 H       
 256 H256         -45.8347     3.5040    -7.6371 H       
 257 H257         -46.9810     4.8656    -7.6203 H       
 258 H258         -46.6236     8.0918    -7.1574 H       
 259 H259          20.7812    -6.5597     5.7073 H       
 260 H260          21.3776    -6.1250     7.3271 H       
 261 H261          20.1843    -7.4323     7.1393 H       
 262 H262          19.1064    -5.3541     7.9565 H       
 263 H263          19.7033    -4.4815     6.5246 H       
 264 H264          18.4301    -6.0210     5.0557 H       
 265 H265          17.8333    -6.8936     6.4877 H       
 266 H266          16.7553    -4.8154     7.3049 H       
 267 H267          17.3522    -3.9428     5.8729 H       
 268 H268          16.0790    -5.4823     4.4041 H       
 269 H269          15.4822    -6.3549     5.8361 H       
 270 H270          14.4043    -4.2767     6.6533 H       
 271 H271          15.0011    -3.4041     5.2213 H       
 272 H272          13.7279    -4.9436     3.7525 H       
 273 H273          13.1311    -5.8163     5.1844 H       
 274 H274          12.0532    -3.7381     6.0016 H       
 275 H275          12.6500    -2.8654     4.5697 H       
 276 H276          11.3768    -4.4049     3.1008 H       
 277 H277          10.7800    -5.2776     4.5328 H       
 278 H278           9.7021    -3.1994     5.3500 H       
 279 H279          10.2989    -2.3267     3.9180 H       
 280 H280           9.0257    -3.8663     2.4492 H       
 281 H281           8.4289    -4.7389     3.8812 H       
 282 H282           7.3510    -2.6607     4.6984 H       
 283 H283           7.9478    -1.7881     3.2664 H       
 284 H284           6.6747    -3.3276     1.7976 H       
 285 H285           6.0778    -4.2002     3.2295 H       
 286 H286           4.9999    -2.1220     4.0467 H       
 287 H287           5.5968    -1.2494     2.6148 H       
 288 H288           3.7267    -3.6615     2.5779 H       
 289 H289           4.3236    -2.7889     1.1459 H       
@<TRIPOS>BOND
   1    1    2 2
   2    1    4 1
   3    1   13 am
   4    3  122 am
   5    3    4 1
   6    3  139 1
   7    4    5 1
   8    4  140 1
   9    5    6 1
  10    5  141 1
  11    5  142 1
  12    6    7 2
  13    6   10 1
  14    7    8 1
  15    7  143 1
  16    8    9 1
  17    8  144 1
  18    9   10 2
  19    9  145 1
  20   11   12 2
  21   11   14 1
  22   11   18 am
  23   13   14 1
  24   13  146 1
  25   14   15 1
  26   14  147 1
  27   15  148 1
  28   15  149 1
  29   15  150 1
  30   16   17 2
  31   16   19 1
  32   16   23 am
  33   18   19 1
  34   18  151 1
  35   19   20 1
  36   19  152 1
  37   20  153 1
  38   20  154 1
  39   20  155 1
  40   21   22 2
  41   21   24 1
  42   21   33 am
  43   23   24 1
  44   23  156 1
  45   24   25 1
  46   24  157 1
  47   25   26 1
  48   25  158 1
  49   25  159 1
  50   26   27 2
  51   26   30 1
  52   27   28 1
  53   27  160 1
  54   28   29 1
  55   28  161 1
  56   29   30 2
  57   29  162 1
  58   31   32 2
  59   31   34 1
  60   31   38 am
  61   33   34 1
  62   33  163 1
  63   34   35 1
  64   34  164 1
  65   35  165 1
  66   35  166 1
  67   35  167 1
  68   36   37 2
  69   36   39 1
  70   36   50 am
  71   38   39 1
  72   38  168 1
  73   39   40 1
  74   39  169 1
  75   40   41 1
  76   40  170 1
  77   40  171 1
  78   41   42 ar
  79   41   47 ar
  80   42   43 ar
  81   42  172 1
  82   43   44 ar
  83   43  173 1
  84   44   45 1
  85   44   46 ar
  86   45  174 1
  87   46   47 ar
  88   46  175 1
  89   47  176 1
  90   48   49 2
  91   48   51 1
  92   48   61 am
  93   50   51 1
  94   50  177 1
  95   51   52 1
  96   51  178 1
  97   52   53 1
  98   52  179 1
  99   52  180 1
 100   53   54 1
 101   53  181 1
 102   53  182 1
 103   54   55 1
 104   54  183 1
 105   54  184 1
 106   55   56 1
 107   55  185 1
 108   56   57 2
 109   56   58 1
 110   57  186 1
 111   58  187 1
 112   58  188 1
 113   59   60 2
 114   59   62 1
 115   59   71 am
 116   61   62 1
 117   61  189 1
 118   62   63 1
 119   62  190 1
 120   63   64 1
 121   63  191 1
 122   63  192 1
 123   64   65 2
 124   64   68 1
 125   65   66 1
 126   65  193 1
 127   66   67 1
 128   66  194 1
 129   67   68 2
 130   67  195 1
 131   69   70 2
 132   69   72 1
 133   69   82 am
 134   71   72 1
 135   71  196 1
 136   72   73 1
 137   72  197 1
 138   73   74 1
 139   73  198 1
 140   73  199 1
 141   74   75 1
 142   74  200 1
 143   74  201 1
 144   75   76 1
 145   75  202 1
 146   75  203 1
 147   76   77 1
 148   76  204 1
 149   77   78 2
 150   77   79 1
 151   78  205 1
 152   79  206 1
 153   79  207 1
 154   80   81 2
 155   80   83 1
 156   80   93 am
 157   82   83 1
 158   82  208 1
 159   83   84 1
 160   83  209 1
 161   84   85 1
 162   84  210 1
 163   84  211 1
 164   85   86 1
 165   85  212 1
 166   85  213 1
 167   86   87 1
 168   86  214 1
 169   86  215 1
 170   87   88 1
 171   87  216 1
 172   88   89 2
 173   88   90 1
 174   89  217 1
 175   90  218 1
 176   90  219 1
 177   91   92 2
 178   91   94 1
 179   91  101 am
 180   93   94 1
 181   93  220 1
 182   94   95 1
 183   94  221 1
 184   95   96 1
 185   95  222 1
 186   95  223 1
 187   96   97 1
 188   96   98 1
 189   96  224 1
 190   97  225 1
 191   97  226 1
 192   97  227 1
 193   98  228 1
 194   98  229 1
 195   98  230 1
 196   99  100 2
 197   99  102 1
 198   99  109 am
 199  101  102 1
 200  101  231 1
 201  102  103 1
 202  102  232 1
 203  103  104 1
 204  103  233 1
 205  103  234 1
 206  104  105 1
 207  104  106 1
 208  104  235 1
 209  105  236 1
 210  105  237 1
 211  105  238 1
 212  106  239 1
 213  106  240 1
 214  106  241 1
 215  107  108 2
 216  107  110 1
 217  107  115 am
 218  109  110 1
 219  109  242 1
 220  110  111 1
 221  110  243 1
 222  111  112 1
 223  111  244 1
 224  111  245 1
 225  112  246 1
 226  113  114 2
 227  113  116 1
 228  113  121 1
 229  115  116 1
 230  115  247 1
 231  116  117 1
 232  116  248 1
 233  117  118 1
 234  117  120 1
 235  117  249 1
 236  118  119 1
 237  118  250 1
 238  118  251 1
 239  119  252 1
 240  119  253 1
 241  119  254 1
 242  120  255 1
 243  120  256 1
 244  120  257 1
 245  121  258 1
 246  122  123 2
 247  122  138 1
 248  124  125 1
 249  124  259 1
 250  124  260 1
 251  124  261 1
 252  125  126 1
 253  125  262 1
 254  125  263 1
 255  126  127 1
 256  126  264 1
 257  126  265 1
 258  127  128 1
 259  127  266 1
 260  127  267 1
 261  128  129 1
 262  128  268 1
 263  128  269 1
 264  129  130 1
 265  129  270 1
 266  129  271 1
 267  130  131 1
 268  130  272 1
 269  130  273 1
 270  131  132 1
 271  131  274 1
 272  131  275 1
 273  132  133 1
 274  132  276 1
 275  132  277 1
 276  133  134 1
 277  133  278 1
 278  133  279 1
 279  134  135 1
 280  134  280 1
 281  134  281 1
 282  135  136 1
 283  135  282 1
 284  135  283 1
 285  136  137 1
 286  136  284 1
 287  136  285 1
 288  137  138 1
 289  137  286 1
 290  137  287 1
 291  138  288 1
 292  138  289 1

#	End of record

