#	Name: ASD01148143
#	Creating user name:	WinNT
#	Creation time:	15. 06. 2019 19:02

#	Modifying user name:	WinNT
#	Modification time:	15. 06. 2019 19:02

#	Program:	/corina/corina34_cracker 3.40 0067  02.08.2006

@<TRIPOS>MOLECULE
ASD01148143
  66   71    0    0    0
SMALL
NO_CHARGES


@<TRIPOS>ATOM
   1 C1            -0.1597     0.9687    -0.4901 C.ar    
   2 C2            -0.1226    -0.2757     0.1334 C.ar    
   3 N3            -1.2012    -0.8128     0.6622 N.ar    
   4 C4            -2.3777    -0.1992     0.6295 C.ar    
   5 C5            -2.4901     1.0609     0.0159 C.ar    
   6 C6            -1.3633     1.6600    -0.5497 C.ar    
   7 N7            -3.4858    -0.7915     1.1929 N.pl3   
   8 C8            -4.6977    -0.2206     1.1892 C.2     
   9 C9            -4.9296     1.0130     0.6173 C.2     
  10 C10           -3.8049     1.7258    -0.0101 C.2     
  11 C11           -6.2762     1.6054     0.6342 C.2     
  12 N12           -6.4661     2.8602     0.1806 N.am    
  13 C13           -7.7593     3.3823     0.0900 C.ar    
  14 O14           -7.2182     0.9625     1.0575 O.2     
  15 O15           -3.9547     2.8181    -0.5292 O.2     
  16 C16           -3.3327    -2.1048     1.8238 C.3     
  17 N17            1.0012     1.5184    -1.0444 N.pl3   
  18 C18            2.2667     0.7841    -0.9709 C.3     
  19 C19            3.2155     1.2104    -2.1111 C.3     
  20 C20            4.6039     1.1625    -1.5100 C.ar    
  21 C21            4.5156     1.1485    -0.1307 C.ar    
  22 C22            3.0619     1.1861     0.2894 C.3     
  23 C23            5.8462     1.1339    -2.1216 C.ar    
  24 C24            6.9960     1.0910    -1.3578 C.ar    
  25 C25            6.9077     1.0770     0.0218 C.ar    
  26 C26            5.6699     1.1060     0.6335 C.ar    
  27 C27           -2.9815    -1.9227     3.3018 C.3     
  28 C28           -7.9774     4.7376     0.3077 C.ar    
  29 C29           -9.2522     5.2547     0.2188 C.ar    
  30 C30          -10.3230     4.4173    -0.0900 C.ar    
  31 C31          -10.1019     3.0583    -0.3084 C.ar    
  32 C32           -8.8247     2.5464    -0.2233 C.ar    
  33 C33          -11.6958     4.9713    -0.1857 C.ar    
  34 C34          -12.7674     4.1355    -0.4944 C.ar    
  35 C35          -14.0425     4.6563    -0.5816 C.ar    
  36 C36          -14.2578     6.0052    -0.3638 C.ar    
  37 C37          -13.1978     6.8396    -0.0575 C.ar    
  38 C38          -11.9194     6.3285     0.0384 C.ar    
  39 H39            0.8131    -0.8127     0.1839 H       
  40 H40           -1.4268     2.6274    -1.0257 H       
  41 H41           -5.5220    -0.7447     1.6499 H       
  42 H42           -5.7052     3.4010    -0.0830 H       
  43 H43           -4.2667    -2.6602     1.7381 H       
  44 H44           -2.5351    -2.6563     1.3261 H       
  45 H45            0.9682     2.3858    -1.4773 H       
  46 H46            2.0907    -0.2914    -0.9950 H       
  47 H47            3.1406     0.5136    -2.9460 H       
  48 H48            2.9805     2.2227    -2.4401 H       
  49 H49            2.7856     2.1918     0.6062 H       
  50 H50            2.8821     0.4726     1.0936 H       
  51 H51            5.9160     1.1448    -3.1993 H       
  52 H52            7.9632     1.0680    -1.8378 H       
  53 H53            7.8059     1.0433     0.6206 H       
  54 H54            5.6017     1.0950     1.7113 H       
  55 H55           -2.0475    -1.3673     3.3875 H       
  56 H56           -3.7791    -1.3712     3.7995 H       
  57 H57           -2.8676    -2.8998     3.7713 H       
  58 H58           -7.1475     5.3861     0.5469 H       
  59 H59           -9.4213     6.3078     0.3887 H       
  60 H60          -10.9301     2.4077    -0.5478 H       
  61 H61           -8.6529     1.4937    -0.3927 H       
  62 H62          -12.6003     3.0823    -0.6653 H       
  63 H63          -14.8737     4.0095    -0.8207 H       
  64 H64          -15.2572     6.4086    -0.4334 H       
  65 H65          -13.3716     7.8920     0.1113 H       
  66 H66          -11.0926     6.9807     0.2779 H       
@<TRIPOS>BOND
   1    1    2 ar
   2    1   17 1
   3    1    6 ar
   4    2    3 ar
   5    2   39 1
   6    3    4 ar
   7    4    5 ar
   8    4    7 1
   9    5    6 ar
  10    5   10 1
  11    6   40 1
  12    7    8 1
  13    7   16 1
  14    8    9 2
  15    8   41 1
  16    9   10 1
  17    9   11 1
  18   10   15 2
  19   11   12 am
  20   11   14 2
  21   12   13 1
  22   12   42 1
  23   13   28 ar
  24   13   32 ar
  25   16   27 1
  26   16   43 1
  27   16   44 1
  28   17   18 1
  29   17   45 1
  30   18   19 1
  31   18   22 1
  32   18   46 1
  33   19   20 1
  34   19   47 1
  35   19   48 1
  36   20   21 ar
  37   20   23 ar
  38   21   22 1
  39   21   26 ar
  40   22   49 1
  41   22   50 1
  42   23   24 ar
  43   23   51 1
  44   24   25 ar
  45   24   52 1
  46   25   26 ar
  47   25   53 1
  48   26   54 1
  49   27   55 1
  50   27   56 1
  51   27   57 1
  52   28   29 ar
  53   28   58 1
  54   29   30 ar
  55   29   59 1
  56   30   31 ar
  57   30   33 1
  58   31   32 ar
  59   31   60 1
  60   32   61 1
  61   33   34 ar
  62   33   38 ar
  63   34   35 ar
  64   34   62 1
  65   35   36 ar
  66   35   63 1
  67   36   37 ar
  68   36   64 1
  69   37   38 ar
  70   37   65 1
  71   38   66 1

#	End of record

