#	Name: ASD01901608
#	Creating user name:	WinNT
#	Creation time:	15. 06. 2019 19:54

#	Modifying user name:	WinNT
#	Modification time:	15. 06. 2019 19:54

#	Program:	/corina/corina34_cracker 3.40 0067  02.08.2006

@<TRIPOS>MOLECULE
ASD01901608
  46   50    0    0    0
SMALL
NO_CHARGES


@<TRIPOS>ATOM
   1 C1             0.7560    -0.1975    -0.7005 C.3     
   2 C2             2.1079     0.5171    -0.6256 C.3     
   3 C3             2.7492     0.2382     0.7372 C.3     
   4 C4             2.8808    -1.2761     0.9269 C.3     
   5 C5             1.4991    -1.9214     0.7920 C.3     
   6 O6             0.9461    -1.5973    -0.4852 O.3     
   7 O7             4.0439     0.8407     0.7885 O.3     
   8 C8             4.4851     1.2483     2.0031 C.ar    
   9 N9             3.7323     1.0775     3.0712 N.ar    
  10 C10            4.1128     1.4568     4.2847 C.ar    
  11 C11            5.3149     2.0524     4.5084 C.ar    
  12 C12            6.1785     2.2706     3.4161 C.ar    
  13 C13            7.4307     2.8769     3.5683 C.ar    
  14 C14            8.2314     3.0626     2.4590 C.ar    
  15 N15            9.4804     3.6660     2.6023 N.pl3   
  16 C16           10.0213     4.4121     1.5505 C.2     
  17 N17            9.4221     4.7074     0.4276 N.2     
  18 N18           10.2717     5.4668    -0.3835 N.pl3   
  19 H19           10.0526     5.8059    -1.2654 H       
  20 C20           11.4627     5.6553     0.2667 C.ar    
  21 C21           12.6467     6.3175    -0.0556 C.ar    
  22 C22           13.6749     6.3035     0.8663 C.ar    
  23 C23           13.5055     5.6392     2.0740 C.ar    
  24 N24           12.3834     5.0200     2.3623 N.ar    
  25 C25           11.3589     5.0079     1.5127 C.ar    
  26 C26            7.8019     2.6508     1.1919 C.ar    
  27 C27            6.5885     2.0593     1.0218 C.ar    
  28 C28            5.7535     1.8513     2.1290 C.ar    
  29 H29            0.0912     0.2012     0.0657 H       
  30 H30            0.3144    -0.0376    -1.6842 H       
  31 H31            2.7596     0.1476    -1.4173 H       
  32 H32            1.9597     1.5903    -0.7457 H       
  33 H33            2.1217     0.6515     1.5269 H       
  34 H34            3.5481    -1.6818     0.1665 H       
  35 H35            3.2854    -1.4853     1.9172 H       
  36 H36            1.5928    -3.0035     0.8836 H       
  37 H37            0.8440    -1.5453     1.5778 H       
  38 H38            3.4482     1.2879     5.1190 H       
  39 H39            5.6023     2.3531     5.5050 H       
  40 H40            7.7671     3.1966     4.5435 H       
  41 H41            9.9740     3.5682     3.4316 H       
  42 H42           12.7569     6.8276    -1.0011 H       
  43 H43           14.6058     6.8061     0.6490 H       
  44 H44           14.3131     5.6312     2.7910 H       
  45 H45            8.4432     2.8051     0.3366 H       
  46 H46            6.2712     1.7471     0.0378 H       
@<TRIPOS>BOND
   1    1    6 1
   2    1    2 1
   3    1   29 1
   4    1   30 1
   5    2    3 1
   6    2   31 1
   7    2   32 1
   8    3    4 1
   9    3    7 1
  10    3   33 1
  11    4    5 1
  12    4   34 1
  13    4   35 1
  14    5    6 1
  15    5   36 1
  16    5   37 1
  17    7    8 1
  18    8   28 ar
  19    8    9 ar
  20    9   10 ar
  21   10   11 ar
  22   10   38 1
  23   11   12 ar
  24   11   39 1
  25   12   28 ar
  26   12   13 ar
  27   13   14 ar
  28   13   40 1
  29   14   15 1
  30   14   26 ar
  31   15   16 1
  32   15   41 1
  33   16   25 1
  34   16   17 2
  35   17   18 1
  36   18   19 1
  37   18   20 1
  38   20   25 ar
  39   20   21 ar
  40   21   22 ar
  41   21   42 1
  42   22   23 ar
  43   22   43 1
  44   23   24 ar
  45   23   44 1
  46   24   25 ar
  47   26   27 ar
  48   26   45 1
  49   27   28 ar
  50   27   46 1

#	End of record

