#	Name: ASD00990077
#	Creating user name:	WinNT
#	Creation time:	15. 06. 2019 18:54

#	Modifying user name:	WinNT
#	Modification time:	15. 06. 2019 18:54

#	Program:	/corina/corina34_cracker 3.40 0067  02.08.2006

@<TRIPOS>MOLECULE
ASD00990077
  44   47    0    0    0
SMALL
NO_CHARGES


@<TRIPOS>ATOM
   1 C1            -0.0167     1.3769     0.0096 C.ar    
   2 C2             0.0021    -0.0041     0.0020 C.ar    
   3 C3             1.2125    -0.6793    -0.0131 C.ar    
   4 C4             2.4067     0.0410    -0.0207 C.ar    
   5 C5             2.3813     1.4268    -0.0134 C.ar    
   6 C6             1.1697     2.0920     0.0021 C.ar    
   7 O7             1.5364    -1.9958    -0.0233 O.3     
   8 C8             2.8727    -2.1210    -0.0367 C.2     
   9 N9             3.4381    -0.8975    -0.0355 N.am    
  10 Cl10           1.1347     3.8276     0.0107 Cl      
  11 C11            4.8739    -0.6067    -0.0476 C.3     
  12 C12            5.3528    -0.5000    -1.4725 C.2     
  13 N13            6.6492    -0.2357    -1.7298 N.am    
  14 C14            7.1147    -0.1319    -3.1149 C.3     
  15 O15            4.5717    -0.6518    -2.3878 O.2     
  16 C16            7.5927    -0.0522    -0.6242 C.3     
  17 C17            6.9924     1.2962    -3.5803 C.2     
  18 N18            7.9945     2.2155    -3.5463 N.pl3   
  19 C19            7.4880     3.3941    -4.0565 C.ar    
  20 C20            6.1494     3.1285    -4.3907 C.ar    
  21 N21            5.9145     1.8280    -4.0785 N.2     
  22 C22            8.0161     4.6596    -4.2736 C.ar    
  23 C23            7.2218     5.6470    -4.8162 C.ar    
  24 C24            5.8996     5.3843    -5.1456 C.ar    
  25 C25            5.3631     4.1451    -4.9392 C.ar    
  26 O26            3.4792    -3.1748    -0.0481 O.2     
  27 C27            5.0470     6.4770    -5.7373 C.3     
  28 F28            5.8045     7.6473    -5.8550 F       
  29 F29            4.5967     6.0839    -7.0022 F       
  30 F30            3.9485     6.7143    -4.9041 F       
  31 H31           -0.9606     1.9017     0.0169 H       
  32 H32           -0.9255    -0.5573     0.0082 H       
  33 H33            3.3056     1.9854    -0.0194 H       
  34 H34            5.0582     0.3351     0.4691 H       
  35 H35            5.4115    -1.4094     0.4572 H       
  36 H36            8.1573    -0.4447    -3.1722 H       
  37 H37            6.5070    -0.7749    -3.7516 H       
  38 H38            8.0306    -1.0139    -0.3569 H       
  39 H39            8.3822     0.6340    -0.9304 H       
  40 H40            7.0672     0.3597     0.2374 H       
  41 H41            8.8974     2.0700    -3.2231 H       
  42 H42            9.0443     4.8695    -4.0183 H       
  43 H43            7.6312     6.6320    -4.9856 H       
  44 H44            4.3329     3.9514    -5.1994 H       
@<TRIPOS>BOND
   1    1    2 ar
   2    1    6 ar
   3    1   31 1
   4    2    3 ar
   5    2   32 1
   6    3    4 ar
   7    3    7 1
   8    4    5 ar
   9    4    9 1
  10    5    6 ar
  11    5   33 1
  12    6   10 1
  13    7    8 1
  14    8    9 am
  15    8   26 2
  16    9   11 1
  17   11   12 1
  18   11   34 1
  19   11   35 1
  20   12   13 am
  21   12   15 2
  22   13   14 1
  23   13   16 1
  24   14   17 1
  25   14   36 1
  26   14   37 1
  27   16   38 1
  28   16   39 1
  29   16   40 1
  30   17   18 1
  31   17   21 2
  32   18   19 1
  33   18   41 1
  34   19   20 ar
  35   19   22 ar
  36   20   21 1
  37   20   25 ar
  38   22   23 ar
  39   22   42 1
  40   23   24 ar
  41   23   43 1
  42   24   25 ar
  43   24   27 1
  44   25   44 1
  45   27   28 1
  46   27   29 1
  47   27   30 1

#	End of record

