#	Name: ASD04882272
#	Creating user name:	WinNT
#	Creation time:	15. 06. 2019 20:54

#	Modifying user name:	WinNT
#	Modification time:	15. 06. 2019 20:54

#	Program:	/corina/corina34_cracker 3.40 0067  02.08.2006

@<TRIPOS>MOLECULE
ASD04882272
  74   79    0    0    0
SMALL
NO_CHARGES


@<TRIPOS>ATOM
   1 N1             0.5017     1.7676     1.1054 N.am    
   2 C2             0.4436     0.3992     0.8106 C.ar    
   3 C3            -0.7941    -0.2289     0.6462 C.ar    
   4 C4            -0.8532    -1.5866     0.3532 C.ar    
   5 C5             0.3069    -2.3175     0.2243 C.ar    
   6 C6             1.5479    -1.6956     0.3874 C.ar    
   7 C7             1.6103    -0.3295     0.6764 C.ar    
   8 N8            -1.9696     0.5061     0.7766 N.3     
   9 C9            -2.1459     0.9770     2.1575 C.3     
  10 C10           -3.1325    -0.2782     0.3382 C.3     
  11 C11           -4.3905     0.5895     0.4218 C.3     
  12 N12           -4.5668     1.0604     1.8026 N.3     
  13 C13           -3.4039     1.8447     2.2410 C.3     
  14 C14            2.7905    -2.4789     0.2493 C.2     
  15 O15            3.8697    -1.9370     0.3913 O.2     
  16 C16           -5.7459     1.7976     1.9334 C.ar    
  17 C17            1.5630     2.2699     1.7670 C.2     
  18 C18            1.6712     3.7152     1.9895 C.2     
  19 O19            2.4316     1.5239     2.1798 O.2     
  20 O20            0.7834     4.6479     1.5871 O.3     
  21 C21            2.6853     4.3524     2.6456 C.2     
  22 C22            2.3821     5.7227     2.6233 C.2     
  23 C23            1.2095     5.8599     1.9659 C.2     
  24 N24            2.7294    -3.7950    -0.0344 N.am    
  25 C25           -6.7355     1.3776     2.8128 C.ar    
  26 C26           -7.9001     2.1093     2.9400 C.ar    
  27 C27           -8.0815     3.2584     2.1928 C.ar    
  28 C28           -7.0981     3.6795     1.3161 C.ar    
  29 C29           -5.9291     2.9558     1.1883 C.ar    
  30 C30           -6.5390     0.1248     3.6269 C.3     
  31 C31            3.9574    -4.5927    -0.0781 C.3     
  32 C32            4.9209    -4.2427    -1.1827 C.ar    
  33 C33            6.2305    -4.6845    -1.1219 C.ar    
  34 C34            7.1220    -4.3677    -2.1319 C.ar    
  35 C35            6.7096    -3.6080    -3.2067 C.ar    
  36 C36            5.3891    -3.1588    -3.2744 C.ar    
  37 C37            4.4936    -3.4872    -2.2550 C.ar    
  38 C38            4.5489    -5.0525     1.2560 C.3     
  39 C39            3.8600    -6.0627     0.3350 C.3     
  40 C40            4.9404    -2.3447    -4.4226 C.2     
  41 O41            5.8056    -2.0342    -5.4072 O.3     
  42 O42            3.7911    -1.9554    -4.4788 O.2     
  43 H43           -0.2200     2.3541     0.8298 H       
  44 H44           -1.8110    -2.0693     0.2268 H       
  45 H45            0.2576    -3.3723    -0.0026 H       
  46 H46            2.5678     0.1537     0.8030 H       
  47 H47           -2.2501     0.1204     2.8233 H       
  48 H48           -1.2779     1.5655     2.4546 H       
  49 H49           -2.9837    -0.6048    -0.6910 H       
  50 H50           -3.2479    -1.1491     0.9834 H       
  51 H51           -4.2863     1.4461    -0.2441 H       
  52 H52           -5.2585     0.0010     0.1246 H       
  53 H53           -3.5527     2.1713     3.2702 H       
  54 H54           -3.2885     2.7156     1.5958 H       
  55 H55            3.5524     3.8912     3.0949 H       
  56 H56            2.9735     6.5177     3.0531 H       
  57 H57            0.7000     6.7932     1.7767 H       
  58 H58            1.8723    -4.2141    -0.2098 H       
  59 H59           -8.6700     1.7833     3.6237 H       
  60 H60           -8.9934     3.8283     2.2936 H       
  61 H61           -7.2432     4.5773     0.7336 H       
  62 H62           -5.1614     3.2854     0.5038 H       
  63 H63           -6.0607     0.3777     4.5732 H       
  64 H64           -7.5067    -0.3378     3.8212 H       
  65 H65           -5.9075    -0.5717     3.0753 H       
  66 H66            6.5588    -5.2791    -0.2821 H       
  67 H67            8.1429    -4.7158    -2.0782 H       
  68 H68            7.4065    -3.3609    -3.9939 H       
  69 H69            3.4709    -3.1430    -2.3013 H       
  70 H70            5.6349    -5.1023     1.3345 H       
  71 H71            4.0243    -4.7615     2.1661 H       
  72 H72            2.8823    -6.4362     0.6395 H       
  73 H73            4.4930    -6.7766    -0.1919 H       
  74 H74            5.4659    -1.4994    -6.1378 H       
@<TRIPOS>BOND
   1    1    2 1
   2    1   17 am
   3    1   43 1
   4    2    3 ar
   5    2    7 ar
   6    3    4 ar
   7    3    8 1
   8    4    5 ar
   9    4   44 1
  10    5    6 ar
  11    5   45 1
  12    6    7 ar
  13    6   14 1
  14    7   46 1
  15    8    9 1
  16    8   10 1
  17    9   13 1
  18    9   47 1
  19    9   48 1
  20   10   11 1
  21   10   49 1
  22   10   50 1
  23   11   12 1
  24   11   51 1
  25   11   52 1
  26   12   13 1
  27   12   16 1
  28   13   53 1
  29   13   54 1
  30   14   15 2
  31   14   24 am
  32   16   25 ar
  33   16   29 ar
  34   17   19 2
  35   17   18 1
  36   18   20 1
  37   18   21 2
  38   20   23 1
  39   21   22 1
  40   21   55 1
  41   22   23 2
  42   22   56 1
  43   23   57 1
  44   24   31 1
  45   24   58 1
  46   25   26 ar
  47   25   30 1
  48   26   27 ar
  49   26   59 1
  50   27   28 ar
  51   27   60 1
  52   28   29 ar
  53   28   61 1
  54   29   62 1
  55   30   63 1
  56   30   64 1
  57   30   65 1
  58   31   32 1
  59   31   38 1
  60   31   39 1
  61   32   33 ar
  62   32   37 ar
  63   33   34 ar
  64   33   66 1
  65   34   35 ar
  66   34   67 1
  67   35   36 ar
  68   35   68 1
  69   36   37 ar
  70   36   40 1
  71   37   69 1
  72   38   39 1
  73   38   70 1
  74   38   71 1
  75   39   72 1
  76   39   73 1
  77   40   41 1
  78   40   42 2
  79   41   74 1

#	End of record

