#	Name: ASD01814441
#	Creating user name:	WinNT
#	Creation time:	15. 06. 2019 19:32

#	Modifying user name:	WinNT
#	Modification time:	15. 06. 2019 19:32

#	Program:	/corina/corina34_cracker 3.40 0067  02.08.2006

@<TRIPOS>MOLECULE
ASD01814441
  57   61    0    0    0
SMALL
NO_CHARGES


@<TRIPOS>ATOM
   1 N1            -0.7569     2.3821     2.8971 N.2     
   2 C2            -0.9593     1.3887     3.7302 C.2     
   3 C3            -0.0123     1.0940     4.7230 C.2     
   4 C4             1.1135     1.8446     4.8139 C.2     
   5 N5             1.2992     2.8727     3.9341 N.pl3   
   6 C6             0.3514     3.1303     2.9775 C.2     
   7 N7             2.3281     3.8064     3.7734 N.2     
   8 C8             2.0292     4.6015     2.7660 C.2     
   9 C9             0.8073     4.2166     2.2402 C.2     
  10 C10            2.5439     5.7820     1.9795 C.3     
  11 N11            1.5561     6.0917     0.9412 N.am    
  12 C12            0.4635     5.1247     1.0876 C.3     
  13 C13            1.6370     7.0778     0.0261 C.2     
  14 O14            0.7885     7.1751    -0.8395 O.2     
  15 C15            2.7541     8.0386     0.0745 C.ar    
  16 C16            2.5064     9.4140    -0.0435 C.ar    
  17 C17            4.0645     7.5838     0.2440 C.ar    
  18 C18            5.1044     8.4855     0.2891 C.ar    
  19 C19            4.8569     9.8458     0.1667 C.ar    
  20 C20            3.5630    10.3088     0.0037 C.ar    
  21 O21            1.2375     9.8662    -0.2036 O.3     
  22 Cl22          -0.2800    -0.2198     5.8257 Cl      
  23 F23            5.8837    10.7226     0.2126 F       
  24 C24            2.1454     1.5487     5.8716 C.3     
  25 C25           -2.2140     0.5613     3.6207 C.3     
  26 C26            1.0620    11.2799    -0.3168 C.3     
  27 C27           -0.4247    11.5970    -0.4901 C.3     
  28 N28           -1.1527    11.2112     0.7261 N.3     
  29 C29           -2.1004     9.2640     1.7584 C.3     
  30 C30           -0.8001     9.8366     1.1410 C.3     
  31 C31           -2.6101    11.2781     0.5131 C.3     
  32 C32           -3.1839     9.8825     0.8363 C.3     
  33 F33           -2.1173     7.8671     1.6846 F       
  34 H34            2.6671     6.6404     2.6399 H       
  35 H35            3.4986     5.5302     1.5178 H       
  36 H36            0.3625     4.5396     0.1736 H       
  37 H37           -0.4686     5.6498     1.2963 H       
  38 H38            4.2615     6.5262     0.3400 H       
  39 H39            6.1167     8.1328     0.4204 H       
  40 H40            3.3767    11.3688    -0.0871 H       
  41 H41            1.8182     0.6989     6.4707 H       
  42 H42            3.0967     1.3124     5.3950 H       
  43 H43            2.2675     2.4207     6.5141 H       
  44 H44           -2.8251     0.9349     2.7990 H       
  45 H45           -1.9480    -0.4788     3.4319 H       
  46 H46           -2.7765     0.6292     4.5518 H       
  47 H47            1.4344    11.7656     0.5851 H       
  48 H48            1.6150    11.6465    -1.1817 H       
  49 H49           -0.5503    12.6655    -0.6652 H       
  50 H50           -0.8181    11.0407    -1.3409 H       
  51 H51           -2.2250     9.6006     2.7876 H       
  52 H52           -0.4979     9.2451     0.2768 H       
  53 H53           -0.0038     9.8573     1.8850 H       
  54 H54           -3.0482    12.0222     1.1782 H       
  55 H55           -2.8218    11.5348    -0.5249 H       
  56 H56           -3.2983     9.2927    -0.0732 H       
  57 H57           -4.1344     9.9690     1.3628 H       
@<TRIPOS>BOND
   1    1    2 2
   2    1    6 1
   3    2    3 1
   4    2   25 1
   5    3    4 2
   6    3   22 1
   7    4    5 1
   8    4   24 1
   9    5    7 1
  10    5    6 1
  11    6    9 2
  12    7    8 2
  13    8   10 1
  14    8    9 1
  15    9   12 1
  16   10   11 1
  17   10   34 1
  18   10   35 1
  19   11   12 1
  20   11   13 am
  21   12   36 1
  22   12   37 1
  23   13   14 2
  24   13   15 1
  25   15   17 ar
  26   15   16 ar
  27   16   20 ar
  28   16   21 1
  29   17   18 ar
  30   17   38 1
  31   18   19 ar
  32   18   39 1
  33   19   20 ar
  34   19   23 1
  35   20   40 1
  36   21   26 1
  37   24   41 1
  38   24   42 1
  39   24   43 1
  40   25   44 1
  41   25   45 1
  42   25   46 1
  43   26   27 1
  44   26   47 1
  45   26   48 1
  46   27   28 1
  47   27   49 1
  48   27   50 1
  49   28   31 1
  50   28   30 1
  51   29   30 1
  52   29   32 1
  53   29   33 1
  54   29   51 1
  55   30   52 1
  56   30   53 1
  57   31   32 1
  58   31   54 1
  59   31   55 1
  60   32   56 1
  61   32   57 1

#	End of record

