#	Name: ASD03320234
#	Creating user name:	WinNT
#	Creation time:	15. 06. 2019 20:36

#	Modifying user name:	WinNT
#	Modification time:	15. 06. 2019 20:36

#	Program:	/corina/corina34_cracker 3.40 0067  02.08.2006

@<TRIPOS>MOLECULE
ASD03320234
  28   29    0    0    0
SMALL
NO_CHARGES


@<TRIPOS>ATOM
   1 C1            -0.0159     1.3795     0.0304 C.ar    
   2 C2             0.0723     0.1413    -0.5789 C.ar    
   3 C3             1.2767    -0.5343    -0.6022 C.ar    
   4 C4             2.4001     0.0315    -0.0133 C.ar    
   5 C5             2.3082     1.2754     0.5975 C.ar    
   6 C6             1.1007     1.9455     0.6178 C.ar    
   7 C7            -1.3303     2.1164     0.0490 C.3     
   8 N8             3.6211    -0.6503    -0.0348 N.am    
   9 C9             4.7751     0.0375    -0.1439 C.2     
  10 C10            6.0654    -0.6682    -0.0484 C.2     
  11 O11            4.7516     1.2405    -0.3211 O.2     
  12 C12            6.3125    -2.1032     0.1610 C.2     
  13 N13            7.6063    -2.2312     0.1714 N.2     
  14 O14            8.1721    -1.1773     0.0128 O.3     
  15 C15            7.3341    -0.1492    -0.1391 C.2     
  16 C16            7.7059     1.2940    -0.3621 C.3     
  17 F17           -2.0482     1.7607     1.1959 F       
  18 F18           -1.0920     3.4949     0.0568 F       
  19 F19           -2.0709     1.7776    -1.0885 F       
  20 H20           -0.8016    -0.2982    -1.0367 H       
  21 H21            1.3448    -1.5016    -1.0776 H       
  22 H22            3.1798     1.7179     1.0567 H       
  23 H23            1.0286     2.9129     1.0926 H       
  24 H24            3.6375    -1.6180     0.0289 H       
  25 H25            5.5761    -2.8840     0.2808 H       
  26 H26            7.8049     1.7966     0.6001 H       
  27 H27            8.6533     1.3464    -0.8985 H       
  28 H28            6.9285     1.7830    -0.9491 H       
@<TRIPOS>BOND
   1    1    2 ar
   2    1    6 ar
   3    1    7 1
   4    2    3 ar
   5    2   20 1
   6    3    4 ar
   7    3   21 1
   8    4    5 ar
   9    4    8 1
  10    5    6 ar
  11    5   22 1
  12    6   23 1
  13    7   17 1
  14    7   18 1
  15    7   19 1
  16    8    9 am
  17    8   24 1
  18    9   10 1
  19    9   11 2
  20   10   12 1
  21   10   15 2
  22   12   13 2
  23   12   25 1
  24   13   14 1
  25   14   15 1
  26   15   16 1
  27   16   26 1
  28   16   27 1
  29   16   28 1

#	End of record

