#	Name: ASD00061026
#	Creating user name:	WinNT
#	Creation time:	15. 06. 2019 18:29

#	Modifying user name:	WinNT
#	Modification time:	15. 06. 2019 18:29

#	Program:	/corina/corina34_cracker 3.40 0067  02.08.2006

@<TRIPOS>MOLECULE
ASD00061026
  39   40    0    0    0
SMALL
NO_CHARGES


@<TRIPOS>ATOM
   1 C1            -0.4192     3.8809    -0.3627 C.ar    
   2 C2            -0.9244     2.5948    -0.4606 C.ar    
   3 C3            -0.0681     1.5059    -0.4721 C.ar    
   4 C4             1.2944     1.6955    -0.3861 C.ar    
   5 C5             1.8119     2.9914    -0.2870 C.ar    
   6 C6             0.9410     4.0860    -0.2760 C.ar    
   7 C7             3.2649     3.2019    -0.1944 C.2     
   8 C8             3.8184     4.5995    -0.0877 C.3     
   9 O9             4.0172     2.2509    -0.2038 O.2     
  10 C10            5.3295     4.5333     0.1430 C.3     
  11 C11            5.9031     5.9267     0.1172 C.ar    
  12 C12            6.8652     6.2608    -0.8175 C.ar    
  13 C13            7.3913     7.5389    -0.8412 C.ar    
  14 C14            6.9551     8.4829     0.0695 C.ar    
  15 C15            5.9924     8.1490     1.0037 C.ar    
  16 C16            5.4631     6.8722     1.0245 C.ar    
  17 Br17          -2.7922     2.3240    -0.5784 Br      
  18 C18            5.6101     3.8914     1.5032 C.3     
  19 C19            7.0916     3.9227     1.7774 C.2     
  20 O20            7.5096     4.4546     2.7786 O.2     
  21 O21            7.9468     3.3598     0.9094 O.3     
  22 C22            4.8838     4.6567     2.5792 C.2     
  23 O23            5.4712     5.4873     3.2311 O.2     
  24 O24            3.5842     4.4157     2.8134 O.3     
  25 H25           -1.0926     4.7253    -0.3588 H       
  26 H26           -0.4691     0.5060    -0.5483 H       
  27 H27            1.9608     0.8456    -0.3949 H       
  28 H28            1.3334     5.0893    -0.1997 H       
  29 H29            3.6153     5.1422    -1.0110 H       
  30 H30            3.3455     5.1148     0.7482 H       
  31 H31            5.7912     3.9357    -0.6430 H       
  32 H32            7.2060     5.5233    -1.5291 H       
  33 H33            8.1435     7.7998    -1.5710 H       
  34 H34            7.3667     9.4813     0.0515 H       
  35 H35            5.6519     8.8864     1.7154 H       
  36 H36            4.7109     6.6113     1.7543 H       
  37 H37            5.2637     2.8579     1.4956 H       
  38 H38            8.8906     3.4697     1.0892 H       
  39 H39            3.1613     4.9314     3.5136 H       
@<TRIPOS>BOND
   1    1    2 ar
   2    1    6 ar
   3    1   25 1
   4    2    3 ar
   5    2   17 1
   6    3    4 ar
   7    3   26 1
   8    4    5 ar
   9    4   27 1
  10    5    6 ar
  11    5    7 1
  12    6   28 1
  13    7    8 1
  14    7    9 2
  15    8   10 1
  16    8   29 1
  17    8   30 1
  18   10   11 1
  19   10   18 1
  20   10   31 1
  21   11   12 ar
  22   11   16 ar
  23   12   13 ar
  24   12   32 1
  25   13   14 ar
  26   13   33 1
  27   14   15 ar
  28   14   34 1
  29   15   16 ar
  30   15   35 1
  31   16   36 1
  32   18   19 1
  33   18   22 1
  34   18   37 1
  35   19   20 2
  36   19   21 1
  37   21   38 1
  38   22   23 2
  39   22   24 1
  40   24   39 1

#	End of record

