#	Name: ASD07150004
#	Creating user name:	WinNT
#	Creation time:	15. 06. 2019 21:09

#	Modifying user name:	WinNT
#	Modification time:	15. 06. 2019 21:09

#	Program:	/corina/corina34_cracker 3.40 0067  02.08.2006

@<TRIPOS>MOLECULE
ASD07150004
  64   67    0    0    0
SMALL
NO_CHARGES


@<TRIPOS>ATOM
   1 C1             0.1759     1.4684     0.0534 C.ar    
   2 C2             0.1688     0.0861     0.0703 C.ar    
   3 C3             1.3603    -0.6123     0.0193 C.ar    
   4 C4             2.5614     0.0731    -0.0487 C.ar    
   5 C5             2.5673     1.4576    -0.0655 C.ar    
   6 C6             1.3746     2.1538    -0.0145 C.ar    
   7 C7            -1.1244     2.2286     0.1026 C.3     
   8 C8            -1.3708     2.7118     1.5086 C.ar    
   9 N9            -1.0526     3.3809    -0.8056 N.3     
  10 C10           -0.9590     4.2928     3.2590 C.ar    
  11 C11           -0.7341     3.8490     1.9697 C.ar    
  12 C12           -2.2376     2.0207     2.3345 C.ar    
  13 C13           -2.4647     2.4631     3.6239 C.ar    
  14 C14           -1.8233     3.5988     4.0887 C.ar    
  15 C15           -2.1627     5.3803    -1.6795 C.3     
  16 N16           -1.8335     4.9536    -3.0467 N.3     
  17 C17           -0.5800     4.1869    -3.0685 C.3     
  18 C18           -0.7234     2.9542    -2.1728 C.3     
  19 C19           -2.3061     4.1476    -0.7838 C.3     
  20 C20           -1.7617     6.1059    -3.9549 C.3     
  21 C21           -1.1874     5.6680    -5.2776 C.ar    
  22 C22           -1.9955     5.0300    -6.2061 C.ar    
  23 C23           -1.4648     4.6265    -7.4257 C.ar    
  24 C24           -0.1255     4.8645    -7.7092 C.ar    
  25 C25            0.6762     5.5033    -6.7751 C.ar    
  26 C26            0.1433     5.9080    -5.5658 C.ar    
  27 O27           -3.3056     4.7989    -5.9237 O.3     
  28 C28           -3.6387     3.5129    -5.3971 C.3     
  29 O29           -2.2547     3.9995    -8.3396 O.3     
  30 C30           -3.0207     4.8307    -9.2139 C.3     
  31 O31            0.3986     4.4713    -8.9010 O.3     
  32 C32            1.7826     4.7486    -9.1242 C.3     
  33 F33           -2.0436     4.0315     5.3494 F       
  34 F34            3.7268    -0.6085    -0.0981 F       
  35 H35           -0.7682    -0.4483     0.1237 H       
  36 H36            1.3545    -1.6922     0.0329 H       
  37 H37            3.5036     1.9933    -0.1182 H       
  38 H38            1.3789     3.2337    -0.0276 H       
  39 H39           -1.9399     1.5740    -0.2047 H       
  40 H40           -0.4609     5.1809     3.6192 H       
  41 H41           -0.0605     4.3906     1.3221 H       
  42 H42           -2.7378     1.1349     1.9718 H       
  43 H43           -3.1425     1.9234     4.2687 H       
  44 H44           -1.3662     6.0180    -1.2959 H       
  45 H45           -3.1009     5.9351    -1.6877 H       
  46 H46           -0.3644     3.8715    -4.0894 H       
  47 H47            0.2345     4.8109    -2.7007 H       
  48 H48            0.2149     2.3995    -2.1646 H       
  49 H49           -1.5199     2.3166    -2.5564 H       
  50 H50           -3.1205     3.5236    -1.1516 H       
  51 H51           -2.5217     4.4630     0.2371 H       
  52 H52           -2.7623     6.5099    -4.1092 H       
  53 H53           -1.1233     6.8738    -3.5180 H       
  54 H54            1.7174     5.6884    -6.9945 H       
  55 H55            0.7701     6.4055    -4.8405 H       
  56 H56           -4.6960     3.4912    -5.1330 H       
  57 H57           -3.4360     2.7492    -6.1479 H       
  58 H58           -3.0383     3.3174    -4.5087 H       
  59 H59           -2.3482     5.4007    -9.8550 H       
  60 H60           -3.6699     4.2088    -9.8302 H       
  61 H61           -3.6281     5.5166    -8.6235 H       
  62 H62            2.0718     4.3840   -10.1099 H       
  63 H63            1.9507     5.8242    -9.0710 H       
  64 H64            2.3808     4.2492    -8.3621 H       
@<TRIPOS>BOND
   1    1    2 ar
   2    1    6 ar
   3    1    7 1
   4    2    3 ar
   5    2   35 1
   6    3    4 ar
   7    3   36 1
   8    4    5 ar
   9    4   34 1
  10    5    6 ar
  11    5   37 1
  12    6   38 1
  13    7    8 1
  14    7    9 1
  15    7   39 1
  16    8   12 ar
  17    8   11 ar
  18    9   19 1
  19    9   18 1
  20   10   11 ar
  21   10   14 ar
  22   10   40 1
  23   11   41 1
  24   12   13 ar
  25   12   42 1
  26   13   14 ar
  27   13   43 1
  28   14   33 1
  29   15   16 1
  30   15   19 1
  31   15   44 1
  32   15   45 1
  33   16   17 1
  34   16   20 1
  35   17   18 1
  36   17   46 1
  37   17   47 1
  38   18   48 1
  39   18   49 1
  40   19   50 1
  41   19   51 1
  42   20   21 1
  43   20   52 1
  44   20   53 1
  45   21   22 ar
  46   21   26 ar
  47   22   23 ar
  48   22   27 1
  49   23   24 ar
  50   23   29 1
  51   24   25 ar
  52   24   31 1
  53   25   26 ar
  54   25   54 1
  55   26   55 1
  56   27   28 1
  57   28   56 1
  58   28   57 1
  59   28   58 1
  60   29   30 1
  61   30   59 1
  62   30   60 1
  63   30   61 1
  64   31   32 1
  65   32   62 1
  66   32   63 1
  67   32   64 1

#	End of record

