#	Name: ASD02198671
#	Creating user name:	WinNT
#	Creation time:	15. 06. 2019 20:19

#	Modifying user name:	WinNT
#	Modification time:	15. 06. 2019 20:19

#	Program:	/corina/corina34_cracker 3.40 0067  02.08.2006

@<TRIPOS>MOLECULE
ASD02198671
  54   58    0    0    0
SMALL
NO_CHARGES


@<TRIPOS>ATOM
   1 C1            -0.0436     1.5034    -0.1143 C.2     
   2 C2            -0.0738     0.1638     0.0983 C.2     
   3 N3             1.0706    -0.5383     0.2611 N.pl3   
   4 N4             2.2353    -0.0040     0.2269 N.2     
   5 C5             2.4073     1.2851     0.0281 C.2     
   6 C6             1.2217     2.1369    -0.1601 C.2     
   7 C7             0.9787    -1.9159     0.4781 C.ar    
   8 C8             1.5800    -2.4852     1.5975 C.ar    
   9 C9             1.4893    -3.8459     1.8128 C.ar    
  10 C10            0.7953    -4.6484     0.9085 C.ar    
  11 C11            0.1942    -4.0749    -0.2117 C.ar    
  12 C12            0.2822    -2.7154    -0.4208 C.ar    
  13 C13            3.7645     1.8668    -0.0048 C.2     
  14 N14            4.3068     2.6061    -1.0182 N.pl3   
  15 N15            5.6088     2.9574    -0.6406 N.2     
  16 C16            5.8524     2.4583     0.5450 C.2     
  17 C17            4.7202     1.7712     0.9829 C.2     
  18 C18            3.6740     2.9505    -2.2194 C.ar    
  19 C19            2.9114     2.0090    -2.8983 C.ar    
  20 C20            2.2876     2.3485    -4.0834 C.ar    
  21 C21            2.4201     3.6248    -4.5959 C.ar    
  22 C22            3.1809     4.5698    -3.9217 C.ar    
  23 C23            3.8035     4.2347    -2.7297 C.ar    
  24 O24            1.3251     3.3398    -0.3485 O.2     
  25 F25            2.2525    -1.7062     2.4726 F       
  26 C26            0.6967    -6.1101     1.1370 C.ar    
  27 N27            1.2713    -6.6495     2.2047 N.ar    
  28 C28           -0.0033    -6.9054     0.2320 C.ar    
  29 C29           -0.0867    -8.2684     0.4588 C.ar    
  30 C30            0.5334    -8.7918     1.5843 C.ar    
  31 C31            1.2070    -7.9434     2.4439 C.ar    
  32 O32            3.3110     5.8245    -4.4274 O.3     
  33 C33            2.6375     6.1015    -5.6569 C.3     
  34 F34            1.2626     5.9041    -5.4901 F       
  35 F35            2.8762     7.4283    -6.0307 F       
  36 F36            3.1144     5.2432    -6.6534 F       
  37 C37            7.1410     2.6065     1.3123 C.3     
  38 H38           -0.9548     2.0673    -0.2488 H       
  39 H39           -1.0238    -0.3483     0.1385 H       
  40 H40            1.9557    -4.2882     2.6807 H       
  41 H41           -0.3438    -4.6954    -0.9131 H       
  42 H42           -0.1838    -2.2718    -1.2883 H       
  43 H43            4.6141     1.2524     1.9242 H       
  44 H44            2.8063     1.0107    -2.4998 H       
  45 H45            1.6956     1.6148    -4.6103 H       
  46 H46            1.9313     3.8873    -5.5225 H       
  47 H47            4.3959     4.9687    -2.2037 H       
  48 H48           -0.4746    -6.4645    -0.6340 H       
  49 H49           -0.6227    -8.9100    -0.2249 H       
  50 H50            0.4868    -9.8511     1.7894 H       
  51 H51            1.6907    -8.3477     3.3208 H       
  52 H52            7.0934     3.5013     1.9329 H       
  53 H53            7.2891     1.7322     1.9461 H       
  54 H54            7.9724     2.6933     0.6128 H       
@<TRIPOS>BOND
   1    1    2 2
   2    1    6 1
   3    1   38 1
   4    2    3 1
   5    2   39 1
   6    3    4 1
   7    3    7 1
   8    4    5 2
   9    5    6 1
  10    5   13 1
  11    6   24 2
  12    7    8 ar
  13    7   12 ar
  14    8    9 ar
  15    8   25 1
  16    9   10 ar
  17    9   40 1
  18   10   11 ar
  19   10   26 1
  20   11   12 ar
  21   11   41 1
  22   12   42 1
  23   13   14 1
  24   13   17 2
  25   14   15 1
  26   14   18 1
  27   15   16 2
  28   16   17 1
  29   16   37 1
  30   17   43 1
  31   18   19 ar
  32   18   23 ar
  33   19   20 ar
  34   19   44 1
  35   20   21 ar
  36   20   45 1
  37   21   22 ar
  38   21   46 1
  39   22   23 ar
  40   22   32 1
  41   23   47 1
  42   26   27 ar
  43   26   28 ar
  44   27   31 ar
  45   28   29 ar
  46   28   48 1
  47   29   30 ar
  48   29   49 1
  49   30   31 ar
  50   30   50 1
  51   31   51 1
  52   32   33 1
  53   33   34 1
  54   33   35 1
  55   33   36 1
  56   37   52 1
  57   37   53 1
  58   37   54 1

#	End of record

