#	Name: ASD04590838
#	Creating user name:	WinNT
#	Creation time:	15. 06. 2019 20:51

#	Modifying user name:	WinNT
#	Modification time:	15. 06. 2019 20:51

#	Program:	/corina/corina34_cracker 3.40 0067  02.08.2006

@<TRIPOS>MOLECULE
ASD04590838
  57   62    0    0    0
SMALL
NO_CHARGES


@<TRIPOS>ATOM
   1 N1            -0.0171     1.3232    -0.0122 N.ar    
   2 C2             0.0017    -0.0035    -0.0053 C.ar    
   3 N3             1.1297    -0.6948    -0.0123 N.ar    
   4 C4             2.3049    -0.0727    -0.0268 C.ar    
   5 C5             2.3188     1.3367    -0.0345 C.ar    
   6 C6             1.1071     2.0203    -0.0266 C.ar    
   7 N7             3.6028    -0.5189    -0.0367 N.pl3   
   8 C8             4.4816     0.5513    -0.0508 C.ar    
   9 C9             3.7311     1.7388    -0.0500 C.ar    
  10 C10            5.8704     0.6464    -0.0641 C.ar    
  11 N11            6.4580     1.8275    -0.0752 N.ar    
  12 C12            5.7743     2.9589    -0.0748 C.ar    
  13 C13            4.4066     2.9600    -0.0630 C.ar    
  14 N14           -1.2023    -0.6889     0.0103 N.pl3   
  15 C15           -2.3990     0.0099     0.1309 C.ar    
  16 N16           -2.3736     1.3188     0.3316 N.ar    
  17 C17           -3.4801     2.0239     0.4518 C.ar    
  18 C18           -4.7279     1.4077     0.3706 C.ar    
  19 C19           -4.7907     0.0236     0.1588 C.ar    
  20 C20           -3.6070    -0.6753     0.0334 C.ar    
  21 C21           -5.9664     2.2021     0.5064 C.2     
  22 C22           -6.7153     2.2475    -0.5495 C.2     
  23 C23            4.0022    -1.9284    -0.0325 C.3     
  24 C24            3.4620    -2.6256     1.2284 C.3     
  25 C25            2.5294    -3.7543     0.7426 C.3     
  26 C26            3.0217    -4.0622    -0.6933 C.3     
  27 C27            3.3790    -2.6579    -1.2405 C.3     
  28 C28           -6.1782     2.8319     1.8405 C.3     
  29 C29           -7.1881     3.9776     1.7786 C.3     
  30 S30           -8.6848     3.3725     0.9384 S.o2    
  31 C31           -8.0092     2.9906    -0.7033 C.3     
  32 O32           -9.0977     2.1599     1.5534 O.2     
  33 O33           -9.6088     4.4454     0.8180 O.2     
  34 F34            6.6207    -0.4771    -0.0652 F       
  35 H35            1.0846     3.1000    -0.0322 H       
  36 H36            6.3052     3.8994    -0.0838 H       
  37 H37            3.8584     3.8905    -0.0624 H       
  38 H38           -1.2107    -1.6561    -0.0629 H       
  39 H39           -3.4198     3.0898     0.6152 H       
  40 H40           -5.7421    -0.4831     0.0916 H       
  41 H41           -3.6178    -1.7426    -0.1310 H       
  42 H42           -6.3719     1.6921    -1.4098 H       
  43 H43            5.0887    -2.0085    -0.0669 H       
  44 H44            4.2863    -3.0447     1.8055 H       
  45 H45            2.9027    -1.9152     1.8372 H       
  46 H46            2.6322    -4.6341     1.3779 H       
  47 H47            1.4943    -3.4134     0.7262 H       
  48 H48            3.9027    -4.7035    -0.6705 H       
  49 H49            2.2270    -4.5166    -1.2850 H       
  50 H50            2.4811    -2.1398    -1.5773 H       
  51 H51            4.1019    -2.7374    -2.0525 H       
  52 H52           -6.5423     2.0755     2.5357 H       
  53 H53           -5.2263     3.2177     2.2055 H       
  54 H54           -7.4391     4.3014     2.7887 H       
  55 H55           -6.7642     4.8115     1.2193 H       
  56 H56           -7.8308     3.9179    -1.2477 H       
  57 H57           -8.7203     2.3758    -1.2550 H       
@<TRIPOS>BOND
   1    1    2 ar
   2    1    6 ar
   3    2    3 ar
   4    2   14 1
   5    3    4 ar
   6    4    5 ar
   7    4    7 1
   8    5    6 ar
   9    5    9 1
  10    6   35 1
  11    7    8 1
  12    7   23 1
  13    8    9 ar
  14    8   10 ar
  15    9   13 ar
  16   10   11 ar
  17   10   34 1
  18   11   12 ar
  19   12   13 ar
  20   12   36 1
  21   13   37 1
  22   14   15 1
  23   14   38 1
  24   15   16 ar
  25   15   20 ar
  26   16   17 ar
  27   17   18 ar
  28   17   39 1
  29   18   19 ar
  30   18   21 1
  31   19   20 ar
  32   19   40 1
  33   20   41 1
  34   21   28 1
  35   21   22 2
  36   22   31 1
  37   22   42 1
  38   23   24 1
  39   23   27 1
  40   23   43 1
  41   24   25 1
  42   24   44 1
  43   24   45 1
  44   25   26 1
  45   25   46 1
  46   25   47 1
  47   26   27 1
  48   26   48 1
  49   26   49 1
  50   27   50 1
  51   27   51 1
  52   28   29 1
  53   28   52 1
  54   28   53 1
  55   29   30 1
  56   29   54 1
  57   29   55 1
  58   30   31 1
  59   30   32 2
  60   30   33 2
  61   31   56 1
  62   31   57 1

#	End of record

