#	Name: ASD01200232
#	Creating user name:	WinNT
#	Creation time:	15. 06. 2019 19:08

#	Modifying user name:	WinNT
#	Modification time:	15. 06. 2019 19:08

#	Program:	/corina/corina34_cracker 3.40 0067  02.08.2006

@<TRIPOS>MOLECULE
ASD01200232
  50   52    0    0    0
SMALL
NO_CHARGES


@<TRIPOS>ATOM
   1 C1             0.4558     1.0903     0.0059 C.ar    
   2 C2             0.2959    -0.2835     0.0037 C.ar    
   3 C3            -0.9732    -0.8317     0.0069 C.ar    
   4 C4            -2.0829    -0.0076     0.0122 C.ar    
   5 C5            -1.9249     1.3658     0.0144 C.ar    
   6 C6            -0.6560     1.9159     0.0170 C.ar    
   7 C7            -1.1469    -2.3287     0.0040 C.3     
   8 C8            -1.9177    -2.7551     1.2550 C.3     
   9 C9            -1.9148    -2.7429    -1.2247 C.2     
  10 N10           -2.0913    -4.0504    -1.5001 N.am    
  11 O11           -2.3739    -1.8998    -1.9658 O.2     
  12 C12           -1.0753    -2.4614     2.4979 C.3     
  13 C13           -2.7102    -4.4336    -2.6830 C.2     
  14 C14           -1.8904    -2.7570     3.7691 C.3     
  15 C15           -1.1285    -3.8582     4.5350 C.3     
  16 C16            0.3324    -3.7252     4.0381 C.3     
  17 C17            0.1536    -3.3932     2.5358 C.3     
  18 Cl18           2.0492     1.7792     0.0019 Cl      
  19 Cl19          -0.4570     3.6405     0.0197 Cl      
  20 S20           -3.3146    -3.3331    -3.9159 S.3     
  21 C21           -3.8395    -4.6538    -4.8666 C.2     
  22 C22           -3.5425    -5.8056    -4.2285 C.2     
  23 N23           -2.9266    -5.6560    -3.0515 N.2     
  24 C24           -3.8972    -9.5128    -4.7208 C.3     
  25 C25           -3.4585   -10.6594    -3.8076 C.3     
  26 C26           -3.8669    -7.1258    -4.7886 C.2     
  27 O27           -4.4239    -7.2088    -5.8660 O.2     
  28 O28           -3.5468    -8.2443    -4.1074 O.3     
  29 H29            1.1626    -0.9280    -0.0009 H       
  30 H30           -3.0739    -0.4369     0.0144 H       
  31 H31           -2.7924     2.0091     0.0182 H       
  32 H32           -0.1679    -2.8080    -0.0005 H       
  33 H33           -2.8542    -2.2002     1.3114 H       
  34 H34           -2.1305    -3.8229     1.2043 H       
  35 H35           -1.7861    -4.7238    -0.8721 H       
  36 H36           -0.7547    -1.4196     2.4938 H       
  37 H37           -1.9648    -1.8589     4.3823 H       
  38 H38           -2.8862    -3.1097     3.5005 H       
  39 H39           -1.1834    -3.6832     5.6095 H       
  40 H40           -1.5279    -4.8416     4.2868 H       
  41 H41            0.8438    -2.9131     4.5549 H       
  42 H42            0.8706    -4.6646     4.1647 H       
  43 H43           -0.0387    -4.3015     1.9647 H       
  44 H44            1.0343    -2.8790     2.1512 H       
  45 H45           -4.3310    -4.5784    -5.8253 H       
  46 H46           -3.3940    -9.6022    -5.6835 H       
  47 H47           -4.9761    -9.5589    -4.8691 H       
  48 H48           -2.3796   -10.6132    -3.6593 H       
  49 H49           -3.9617   -10.5700    -2.8449 H       
  50 H50           -3.7216   -11.6116    -4.2681 H       
@<TRIPOS>BOND
   1    1    2 ar
   2    1   18 1
   3    1    6 ar
   4    2    3 ar
   5    2   29 1
   6    3    4 ar
   7    3    7 1
   8    4    5 ar
   9    4   30 1
  10    5    6 ar
  11    5   31 1
  12    6   19 1
  13    7    8 1
  14    7    9 1
  15    7   32 1
  16    8   12 1
  17    8   33 1
  18    8   34 1
  19    9   10 am
  20    9   11 2
  21   10   13 1
  22   10   35 1
  23   12   14 1
  24   12   17 1
  25   12   36 1
  26   13   20 1
  27   13   23 2
  28   14   15 1
  29   14   37 1
  30   14   38 1
  31   15   16 1
  32   15   39 1
  33   15   40 1
  34   16   17 1
  35   16   41 1
  36   16   42 1
  37   17   43 1
  38   17   44 1
  39   20   21 1
  40   21   22 2
  41   21   45 1
  42   22   23 1
  43   22   26 1
  44   24   25 1
  45   24   28 1
  46   24   46 1
  47   24   47 1
  48   25   48 1
  49   25   49 1
  50   25   50 1
  51   26   27 2
  52   26   28 1

#	End of record

