#	Name: ASD00122072
#	Creating user name:	WinNT
#	Creation time:	15. 06. 2019 18:31

#	Modifying user name:	WinNT
#	Modification time:	15. 06. 2019 18:31

#	Program:	/corina/corina34_cracker 3.40 0067  02.08.2006

@<TRIPOS>MOLECULE
ASD00122072
  29   31    0    0    0
SMALL
NO_CHARGES


@<TRIPOS>ATOM
   1 C1            -0.0170     1.3999     0.0097 C.ar    
   2 C2             0.0021    -0.0041     0.0020 C.ar    
   3 C3            -1.2268    -0.6842     0.0106 C.ar    
   4 N4            -2.3538     0.0187     0.0260 N.ar    
   5 C5            -2.3239     1.3353     0.0331 C.ar    
   6 N6            -1.1937     2.0178     0.0299 N.ar    
   7 N7             0.9822    -0.9420    -0.0128 N.2     
   8 C8             0.4419    -2.1360    -0.0138 C.2     
   9 N9            -0.9222    -2.0260     0.0004 N.pl3   
  10 S10            1.3366    -3.6538    -0.0313 S.3     
  11 C11            3.0317    -3.0193    -0.0445 C.3     
  12 C12            4.0001    -4.1738    -0.0607 C.ar    
  13 C13            4.4328    -4.6970    -1.2660 C.ar    
  14 C14            5.3224    -5.7568    -1.2801 C.ar    
  15 C15            5.7780    -6.2919    -0.0902 C.ar    
  16 C16            5.3452    -5.7686     1.1141 C.ar    
  17 C17            4.4607    -4.7066     1.1288 C.ar    
  18 Cl18           3.8596    -4.0245    -2.7603 Cl      
  19 N19            1.1641     2.1248     0.0024 N.pl3   
  20 H20           -3.2583     1.8767     0.0452 H       
  21 H21           -1.5574    -2.7591     0.0030 H       
  22 H22            3.1831    -2.4056    -0.9325 H       
  23 H23            3.2007    -2.4158     0.8473 H       
  24 H24            5.6603    -6.1658    -2.2207 H       
  25 H25            6.4721    -7.1193    -0.1011 H       
  26 H26            5.7013    -6.1874     2.0438 H       
  27 H27            4.1232    -4.2980     2.0699 H       
  28 H28            2.0168     1.6626    -0.0083 H       
  29 H29            1.1380     3.0944     0.0078 H       
@<TRIPOS>BOND
   1    1    2 ar
   2    1   19 1
   3    1    6 ar
   4    2    3 ar
   5    2    7 1
   6    3    4 ar
   7    3    9 1
   8    4    5 ar
   9    5    6 ar
  10    5   20 1
  11    7    8 2
  12    8    9 1
  13    8   10 1
  14    9   21 1
  15   10   11 1
  16   11   12 1
  17   11   22 1
  18   11   23 1
  19   12   13 ar
  20   12   17 ar
  21   13   14 ar
  22   13   18 1
  23   14   15 ar
  24   14   24 1
  25   15   16 ar
  26   15   25 1
  27   16   17 ar
  28   16   26 1
  29   17   27 1
  30   19   28 1
  31   19   29 1

#	End of record

