#	Name: ASD03240589
#	Creating user name:	WinNT
#	Creation time:	15. 06. 2019 20:35

#	Modifying user name:	WinNT
#	Modification time:	15. 06. 2019 20:35

#	Program:	/corina/corina34_cracker 3.40 0067  02.08.2006

@<TRIPOS>MOLECULE
ASD03240589
  60   66    0    0    0
SMALL
NO_CHARGES


@<TRIPOS>ATOM
   1 C1            -0.0166     1.3754     0.0096 C.ar    
   2 C2             0.0021    -0.0041     0.0020 C.ar    
   3 N3             1.1422    -0.6683    -0.0053 N.ar    
   4 C4             2.3145    -0.0481    -0.0053 C.ar    
   5 C5             2.3702     1.3443    -0.0124 C.ar    
   6 C6             1.1861     2.0698     0.0018 C.ar    
   7 N7             3.4821    -0.8057     0.0230 N.pl3   
   8 C8             4.3589    -0.7189     1.1010 C.ar    
   9 C9             4.9949     0.4897     1.4048 C.ar    
  10 C10            4.7637     1.6837     0.5626 C.2     
  11 N11            3.5939     2.0275    -0.0512 N.pl3   
  12 C12            4.6045    -1.8382     1.8849 C.ar    
  13 C13            5.4642    -1.7526     2.9634 C.ar    
  14 C14            6.0851    -0.5544     3.2719 C.ar    
  15 C15            5.8553     0.5664     2.4997 C.ar    
  16 N16            5.6755     2.5948     0.2852 N.2     
  17 C17            5.1465     3.5394    -0.5060 C.2     
  18 C18            3.8241     3.2048    -0.7385 C.2     
  19 C19            2.8529     3.9555    -1.5572 C.ar    
  20 C20            2.7550     5.3437    -1.4332 C.ar    
  21 C21            2.0308     3.2822    -2.4643 C.ar    
  22 C22            1.1257     3.9905    -3.2267 C.ar    
  23 C23            1.0306     5.3647    -3.0947 C.ar    
  24 C24            1.8452     6.0389    -2.2021 C.ar    
  25 C25            5.8527     4.7310    -1.0369 C.2     
  26 C26            0.0393     6.1316    -3.9317 C.3     
  27 N27           -1.0396     5.2844    -4.4572 N.3     
  28 C28           -0.4613     7.4234    -3.2643 C.3     
  29 C29           -0.3719     8.0814    -4.6513 C.3     
  30 C30            0.6945     7.0262    -4.9971 C.3     
  31 C31            5.6496     5.3262    -2.2977 C.2     
  32 N32            6.4548     6.3505    -2.3979 N.2     
  33 N33            7.1981     6.4499    -1.2155 N.pl3   
  34 C34            6.8133     5.4540    -0.3906 C.2     
  35 C35            8.2144     7.4636    -0.9225 C.3     
  36 H36           -0.9556     1.9091     0.0170 H       
  37 H37           -0.9306    -0.5486     0.0025 H       
  38 H38            1.2002     3.1497     0.0061 H       
  39 H39            3.6867    -1.4003    -0.7156 H       
  40 H40            4.1236    -2.7766     1.6514 H       
  41 H41            5.6527    -2.6261     3.5699 H       
  42 H42            6.7516    -0.4964     4.1198 H       
  43 H43            6.3403     1.5003     2.7430 H       
  44 H44            3.3900     5.8711    -0.7366 H       
  45 H45            2.1042     2.2097    -2.5686 H       
  46 H46            0.4898     3.4714    -3.9286 H       
  47 H47            1.7656     7.1115    -2.1043 H       
  48 H48           -0.6669     4.4619    -4.9073 H       
  49 H49           -1.6904     5.0339    -3.7279 H       
  50 H50           -1.4789     7.3505    -2.8804 H       
  51 H51            0.2374     7.8388    -2.5381 H       
  52 H52           -1.2848     7.9866    -5.2393 H       
  53 H53            0.0131     9.1009    -4.6270 H       
  54 H54            1.7097     7.3325    -4.7449 H       
  55 H55            0.6089     6.6348    -6.0108 H       
  56 H56            4.9503     4.9936    -3.0506 H       
  57 H57            7.2001     5.2599     0.5989 H       
  58 H58            7.7432     8.3233    -0.4460 H       
  59 H59            8.9647     7.0430    -0.2530 H       
  60 H60            8.6913     7.7788    -1.8506 H       
@<TRIPOS>BOND
   1    1    2 ar
   2    1    6 ar
   3    1   36 1
   4    2    3 ar
   5    2   37 1
   6    3    4 ar
   7    4    5 ar
   8    4    7 1
   9    5    6 ar
  10    5   11 1
  11    6   38 1
  12    7    8 1
  13    7   39 1
  14    8    9 ar
  15    8   12 ar
  16    9   10 1
  17    9   15 ar
  18   10   11 1
  19   10   16 2
  20   11   18 1
  21   12   13 ar
  22   12   40 1
  23   13   14 ar
  24   13   41 1
  25   14   15 ar
  26   14   42 1
  27   15   43 1
  28   16   17 1
  29   17   18 2
  30   17   25 1
  31   18   19 1
  32   19   20 ar
  33   19   21 ar
  34   20   24 ar
  35   20   44 1
  36   21   22 ar
  37   21   45 1
  38   22   23 ar
  39   22   46 1
  40   23   24 ar
  41   23   26 1
  42   24   47 1
  43   25   31 1
  44   25   34 2
  45   26   27 1
  46   26   28 1
  47   26   30 1
  48   27   48 1
  49   27   49 1
  50   28   29 1
  51   28   50 1
  52   28   51 1
  53   29   30 1
  54   29   52 1
  55   29   53 1
  56   30   54 1
  57   30   55 1
  58   31   32 2
  59   31   56 1
  60   32   33 1
  61   33   34 1
  62   33   35 1
  63   34   57 1
  64   35   58 1
  65   35   59 1
  66   35   60 1

#	End of record

