#	Name: ASD02198652
#	Creating user name:	WinNT
#	Creation time:	15. 06. 2019 20:19

#	Modifying user name:	WinNT
#	Modification time:	15. 06. 2019 20:19

#	Program:	/corina/corina34_cracker 3.40 0067  02.08.2006

@<TRIPOS>MOLECULE
ASD02198652
  57   61    0    0    0
SMALL
NO_CHARGES


@<TRIPOS>ATOM
   1 C1             0.0067     1.5063     0.1348 C.2     
   2 C2             0.0731     0.1661    -0.0931 C.2     
   3 N3            -1.0537    -0.5633    -0.2633 N.pl3   
   4 N4            -2.2314    -0.0590    -0.2230 N.2     
   5 C5            -2.4382     1.2241    -0.0101 C.2     
   6 C6            -1.2793     2.1041     0.1931 C.2     
   7 C7            -0.9269    -1.9371    -0.4956 C.ar    
   8 C8            -1.5134    -2.5101    -1.6200 C.ar    
   9 C9            -1.3873    -3.8674    -1.8480 C.ar    
  10 C10           -0.6758    -4.6579    -0.9551 C.ar    
  11 C11           -0.0909    -4.0850     0.1676 C.ar    
  12 C12           -0.2107    -2.7291     0.3933 C.ar    
  13 C13           -3.8110     1.7680     0.0288 C.2     
  14 N14           -4.3732     2.4810     1.0501 N.pl3   
  15 N15           -5.6846     2.8001     0.6763 N.2     
  16 C16           -5.9146     2.3073    -0.5146 C.2     
  17 C17           -4.7637     1.6571    -0.9601 C.2     
  18 C18           -3.7498     2.8298     2.2549 C.ar    
  19 C19           -3.9192     4.1029     2.7829 C.ar    
  20 C20           -3.3031     4.4437     3.9711 C.ar    
  21 C21           -2.5182     3.5187     4.6348 C.ar    
  22 C22           -2.3476     2.2501     4.1116 C.ar    
  23 C23           -2.9656     1.9013     2.9268 C.ar    
  24 O24           -1.4165     3.3022     0.3944 O.2     
  25 O25            1.1344     2.2468     0.3065 O.3     
  26 C26            2.3823     1.5540     0.2365 C.3     
  27 F27           -2.2058    -1.7403    -2.4879 F       
  28 N28           -0.5480    -6.0324    -1.1859 N.am    
  29 C29            0.1749    -6.9808    -0.3248 C.3     
  30 C30           -0.0034    -8.3344    -1.0391 C.3     
  31 O31           -0.7998    -8.0103    -2.2154 O.3     
  32 C32           -1.0693    -6.6999    -2.2243 C.2     
  33 C33            1.3544    -8.9062    -1.4516 C.3     
  34 C34           -0.7516    -9.3208    -0.1401 C.3     
  35 O35           -1.7212    -6.1630    -3.0980 O.2     
  36 H36            1.0361    -0.3205    -0.1388 H       
  37 H37           -1.8423    -4.3132    -2.7201 H       
  38 H38            0.4617    -4.7008     0.8618 H       
  39 H39            0.2443    -2.2848     1.2663 H       
  40 H40           -6.8408     2.3938    -1.0633 H       
  41 H41           -4.6434     1.1517    -1.9069 H       
  42 H42           -4.5318     4.8259     2.2648 H       
  43 H43           -3.4342     5.4339     4.3821 H       
  44 H44           -2.0372     3.7878     5.5636 H       
  45 H45           -1.7337     1.5300     4.6322 H       
  46 H46           -2.8320     0.9104     2.5187 H       
  47 H47            2.4845     1.0877    -0.7434 H       
  48 H48            3.1987     2.2597     0.3900 H       
  49 H49            2.4155     0.7862     1.0095 H       
  50 H50            1.2305    -6.7156    -0.2649 H       
  51 H51           -0.2703    -7.0111     0.6696 H       
  52 H52            1.9715    -9.0525    -0.5650 H       
  53 H53            1.2085    -9.8622    -1.9545 H       
  54 H54            1.8507    -8.2113    -2.1290 H       
  55 H55           -1.7343    -8.9171     0.1034 H       
  56 H56           -0.8681   -10.2710    -0.6613 H       
  57 H57           -0.1853    -9.4771     0.7780 H       
@<TRIPOS>BOND
   1    1    2 2
   2    1   25 1
   3    1    6 1
   4    2    3 1
   5    2   36 1
   6    3    4 1
   7    3    7 1
   8    4    5 2
   9    5    6 1
  10    5   13 1
  11    6   24 2
  12    7    8 ar
  13    7   12 ar
  14    8    9 ar
  15    8   27 1
  16    9   10 ar
  17    9   37 1
  18   10   11 ar
  19   10   28 1
  20   11   12 ar
  21   11   38 1
  22   12   39 1
  23   13   14 1
  24   13   17 2
  25   14   15 1
  26   14   18 1
  27   15   16 2
  28   16   17 1
  29   16   40 1
  30   17   41 1
  31   18   19 ar
  32   18   23 ar
  33   19   20 ar
  34   19   42 1
  35   20   21 ar
  36   20   43 1
  37   21   22 ar
  38   21   44 1
  39   22   23 ar
  40   22   45 1
  41   23   46 1
  42   25   26 1
  43   26   47 1
  44   26   48 1
  45   26   49 1
  46   28   29 1
  47   28   32 am
  48   29   30 1
  49   29   50 1
  50   29   51 1
  51   30   31 1
  52   30   33 1
  53   30   34 1
  54   31   32 1
  55   32   35 2
  56   33   52 1
  57   33   53 1
  58   33   54 1
  59   34   55 1
  60   34   56 1
  61   34   57 1

#	End of record

