#	Name: ASD09890054
#	Creating user name:	WinNT
#	Creation time:	15. 06. 2019 21:24

#	Modifying user name:	WinNT
#	Modification time:	15. 06. 2019 21:24

#	Program:	/corina/corina34_cracker 3.40 0067  02.08.2006

@<TRIPOS>MOLECULE
ASD09890054
  46   49    0    0    0
SMALL
NO_CHARGES


@<TRIPOS>ATOM
   1 C1            -0.0167     1.3792     0.0096 C.ar    
   2 C2             0.0021    -0.0041     0.0020 C.ar    
   3 C3             1.2083    -0.6813    -0.0127 C.ar    
   4 C4             2.3968     0.0227    -0.0202 C.ar    
   5 C5             2.3802     1.4099    -0.0131 C.ar    
   6 C6             1.1696     2.0871     0.0021 C.ar    
   7 C7             4.8405     4.1242    -0.0223 C.2     
   8 N8             5.5764     4.4497    -1.1308 N.pl3   
   9 C9             6.7568     4.9519    -0.6554 C.2     
  10 N10            6.6907     4.9120     0.6552 N.2     
  11 N11            5.5580     4.4285     1.0220 N.2     
  12 S12            8.1096     5.5398    -1.6193 S.3     
  13 C13            9.2515     6.0186    -0.2991 C.3     
  14 C14            5.1990     4.2988    -2.4730 C.ar    
  15 C15            5.0280     5.4172    -3.2773 C.ar    
  16 C16            4.6567     5.2655    -4.5990 C.ar    
  17 C17            4.4552     4.0011    -5.1212 C.ar    
  18 C18            4.6247     2.8852    -4.3225 C.ar    
  19 C19            5.0011     3.0305    -3.0014 C.ar    
  20 Br20          -1.6233    -0.9705     0.0123 Br      
  21 C21            3.4554     3.5304    -0.0124 C.3     
  22 O22            3.5484     2.1045    -0.0205 O.3     
  23 C23           10.5962     6.4630    -0.9008 C.3     
  24 C24           10.8054     7.9312    -0.4759 C.3     
  25 C25            9.9414     8.0840     0.8005 C.3     
  26 C26            8.6905     7.2322     0.4704 C.3     
  27 H27           -0.9594     1.9061     0.0169 H       
  28 H28            1.2208    -1.7612    -0.0179 H       
  29 H29            3.3383    -0.5064    -0.0313 H       
  30 H30            1.1545     3.1670     0.0073 H       
  31 H31            9.4056     5.1821     0.3825 H       
  32 H32            5.1849     6.4051    -2.8699 H       
  33 H33            4.5232     6.1353    -5.2252 H       
  34 H34            4.1645     3.8849    -6.1549 H       
  35 H35            4.4666     1.8989    -4.7330 H       
  36 H36            5.1336     2.1586    -2.3781 H       
  37 H37            2.9274     3.8550     0.8842 H       
  38 H38            2.9108     3.8640    -0.8957 H       
  39 H39           11.4031     5.8427    -0.5105 H       
  40 H40           10.5611     6.3903    -1.9878 H       
  41 H41           11.8555     8.1170    -0.2502 H       
  42 H42           10.4564     8.6076    -1.2561 H       
  43 H43           10.4627     7.6839     1.6701 H       
  44 H44            9.6676     9.1271     0.9590 H       
  45 H45            7.9999     7.7958    -0.1570 H       
  46 H46            8.1971     6.9080     1.3867 H       
@<TRIPOS>BOND
   1    1    2 ar
   2    1    6 ar
   3    1   27 1
   4    2    3 ar
   5    2   20 1
   6    3    4 ar
   7    3   28 1
   8    4    5 ar
   9    4   29 1
  10    5    6 ar
  11    5   22 1
  12    6   30 1
  13    7    8 1
  14    7   21 1
  15    7   11 2
  16    8    9 1
  17    8   14 1
  18    9   10 2
  19    9   12 1
  20   10   11 1
  21   12   13 1
  22   13   23 1
  23   13   26 1
  24   13   31 1
  25   14   15 ar
  26   14   19 ar
  27   15   16 ar
  28   15   32 1
  29   16   17 ar
  30   16   33 1
  31   17   18 ar
  32   17   34 1
  33   18   19 ar
  34   18   35 1
  35   19   36 1
  36   21   22 1
  37   21   37 1
  38   21   38 1
  39   23   24 1
  40   23   39 1
  41   23   40 1
  42   24   25 1
  43   24   41 1
  44   24   42 1
  45   25   26 1
  46   25   43 1
  47   25   44 1
  48   26   45 1
  49   26   46 1

#	End of record

