#	Name: ASD03540348
#	Creating user name:	WinNT
#	Creation time:	15. 06. 2019 20:43

#	Modifying user name:	WinNT
#	Modification time:	15. 06. 2019 20:43

#	Program:	/corina/corina34_cracker 3.40 0067  02.08.2006

@<TRIPOS>MOLECULE
ASD03540348
  51   54    0    0    0
SMALL
NO_CHARGES


@<TRIPOS>ATOM
   1 C1            -0.0161     1.3365     0.0094 C.2     
   2 N2             0.0021    -0.0041     0.0020 N.am    
   3 C3             1.1934    -0.7075    -0.0132 C.2     
   4 C4             2.3927    -0.0052    -0.0209 C.2     
   5 C5             2.3194     1.4731    -0.0123 C.2     
   6 N6             1.1112     2.0659     0.0025 N.am    
   7 C7             3.5132    -0.8389    -0.0357 C.2     
   8 C8             3.2261    -2.1513    -0.0396 C.2     
   9 S9             1.4880    -2.3901    -0.0245 S.3     
  10 C10            4.2202    -3.2270    -0.0552 C.2     
  11 O11            5.4074    -2.9586    -0.0657 O.2     
  12 N12            3.8203    -4.5141    -0.0579 N.am    
  13 C13            4.8145    -5.5900    -0.0735 C.3     
  14 C14            4.1120    -6.9232    -0.0734 C.ar    
  15 C15            3.7779    -7.5281    -1.2710 C.ar    
  16 C16            3.1342    -8.7508    -1.2721 C.ar    
  17 C17            2.8236    -9.3702    -0.0732 C.ar    
  18 C18            3.1585    -8.7636     1.1253 C.ar    
  19 C19            3.8072    -7.5431     1.1239 C.ar    
  20 C20            2.7698    -9.4096    -2.5776 C.3     
  21 F21            3.1825    -8.5987    -3.6403 F       
  22 F22            3.4050   -10.6529    -2.6657 F       
  23 F23            1.3836    -9.5886    -2.6386 F       
  24 F24            2.1937   -10.5655    -0.0731 F       
  25 O25            3.3359     2.1421    -0.0183 O.2     
  26 O26           -1.0880     1.9102     0.0175 O.2     
  27 C27           -1.2652    -0.7390     0.0107 C.3     
  28 C28            1.0247     3.5284     0.0113 C.3     
  29 C29            1.0086     4.0221     1.4350 C.ar    
  30 C30            2.1963     4.3193     2.0769 C.ar    
  31 C31            2.1816     4.7722     3.3829 C.ar    
  32 C32            0.9792     4.9283     4.0468 C.ar    
  33 C33           -0.2085     4.6320     3.4046 C.ar    
  34 C34           -0.1940     4.1833     2.0972 C.ar    
  35 H35            4.5248    -0.4605    -0.0436 H       
  36 H36            2.8742    -4.7281    -0.0495 H       
  37 H37            5.4295    -5.5035    -0.9692 H       
  38 H38            5.4474    -5.5127     0.8106 H       
  39 H39            4.0200    -7.0446    -2.2059 H       
  40 H40            2.9164    -9.2457     2.0609 H       
  41 H41            4.0725    -7.0718     2.0587 H       
  42 H42           -2.0950    -0.0323     0.0228 H       
  43 H43           -1.3306    -1.3610    -0.8820 H       
  44 H44           -1.3129    -1.3705     0.8978 H       
  45 H45            1.8867     3.9464    -0.5086 H       
  46 H46            0.1099     3.8413    -0.4921 H       
  47 H47            3.1357     4.1973     1.5582 H       
  48 H48            3.1095     5.0037     3.8846 H       
  49 H49            0.9677     5.2815     5.0674 H       
  50 H50           -1.1479     4.7537     3.9234 H       
  51 H51           -1.1222     3.9553     1.5942 H       
@<TRIPOS>BOND
   1    1    2 am
   2    1    6 am
   3    1   26 2
   4    2    3 1
   5    2   27 1
   6    3    4 2
   7    3    9 1
   8    4    5 1
   9    4    7 1
  10    5    6 am
  11    5   25 2
  12    6   28 1
  13    7    8 2
  14    7   35 1
  15    8    9 1
  16    8   10 1
  17   10   11 2
  18   10   12 am
  19   12   13 1
  20   12   36 1
  21   13   14 1
  22   13   37 1
  23   13   38 1
  24   14   15 ar
  25   14   19 ar
  26   15   16 ar
  27   15   39 1
  28   16   17 ar
  29   16   20 1
  30   17   18 ar
  31   17   24 1
  32   18   19 ar
  33   18   40 1
  34   19   41 1
  35   20   21 1
  36   20   22 1
  37   20   23 1
  38   27   42 1
  39   27   43 1
  40   27   44 1
  41   28   29 1
  42   28   45 1
  43   28   46 1
  44   29   30 ar
  45   29   34 ar
  46   30   31 ar
  47   30   47 1
  48   31   32 ar
  49   31   48 1
  50   32   33 ar
  51   32   49 1
  52   33   34 ar
  53   33   50 1
  54   34   51 1

#	End of record

