#	Name: ASD01911265
#	Creating user name:	WinNT
#	Creation time:	15. 06. 2019 19:57

#	Modifying user name:	WinNT
#	Modification time:	15. 06. 2019 19:57

#	Program:	/corina/corina34_cracker 3.40 0067  02.08.2006

@<TRIPOS>MOLECULE
ASD01911265
  47   50    0    0    0
SMALL
NO_CHARGES


@<TRIPOS>ATOM
   1 C1            -0.8008     1.1707    -0.7869 C.3     
   2 C2            -0.1175     0.0691     0.0294 C.3     
   3 N3             0.8731    -0.6044    -0.8213 N.am    
   4 C4             1.8882     0.2096    -1.5038 C.3     
   5 C5             1.1824     1.3097    -2.3029 C.3     
   6 C6             0.2638     2.1025    -1.3704 C.3     
   7 C7             0.8514    -1.9435    -0.9724 C.2     
   8 O8             1.5934    -2.4768    -1.7740 O.2     
   9 C9            -0.0749    -2.7639    -0.1631 C.ar    
  10 C10            2.6880    -0.6602    -2.4391 C.2     
  11 N11            3.9281    -1.0473    -2.2721 N.2     
  12 C12            4.2205    -1.8055    -3.3528 C.2     
  13 N13            3.1514    -1.8339    -4.1052 N.2     
  14 O14            2.2634    -1.1862    -3.5923 O.3     
  15 C15            5.5131    -2.4790    -3.6329 C.ar    
  16 C16            6.5722    -2.3599    -2.7358 C.ar    
  17 C17            7.7723    -2.9884    -3.0013 C.ar    
  18 C18            7.9242    -3.7351    -4.1554 C.ar    
  19 C19            6.8758    -3.8566    -5.0497 C.ar    
  20 C20            5.6699    -3.2373    -4.7914 C.ar    
  21 C21            7.0490    -4.6716    -6.3055 C.3     
  22 C22           -0.5178    -3.9979    -0.6411 C.ar    
  23 C23           -1.3819    -4.7599     0.1183 C.ar    
  24 C24           -1.8101    -4.3039     1.3517 C.ar    
  25 C25           -1.3748    -3.0794     1.8333 C.ar    
  26 C26           -0.5054    -2.3098     1.0844 C.ar    
  27 F27           -1.7976    -2.6398     3.0388 F       
  28 H28           -1.3740     0.7206    -1.5974 H       
  29 H29           -1.4688     1.7407    -0.1412 H       
  30 H30            0.3814     0.5099     0.8925 H       
  31 H31           -0.8624    -0.6527     0.3645 H       
  32 H32            2.5506     0.6619    -0.7658 H       
  33 H33            1.9260     1.9786    -2.7362 H       
  34 H34            0.5905     0.8582    -3.0991 H       
  35 H35           -0.2210     2.9016    -1.9313 H       
  36 H36            0.8527     2.5332    -0.5605 H       
  37 H37            6.4547    -1.7768    -1.8344 H       
  38 H38            8.5941    -2.8965    -2.3066 H       
  39 H39            8.8649    -4.2248    -4.3594 H       
  40 H40            4.8519    -3.3331    -5.4901 H       
  41 H41            6.7630    -5.7051    -6.1103 H       
  42 H42            6.4174    -4.2626    -7.0941 H       
  43 H43            8.0919    -4.6365    -6.6204 H       
  44 H44           -0.1849    -4.3559    -1.6042 H       
  45 H45           -1.7250    -5.7148    -0.2517 H       
  46 H46           -2.4868    -4.9042     1.9418 H       
  47 H47           -0.1662    -1.3556     1.4599 H       
@<TRIPOS>BOND
   1    1    2 1
   2    1    6 1
   3    1   28 1
   4    1   29 1
   5    2    3 1
   6    2   30 1
   7    2   31 1
   8    3    4 1
   9    3    7 am
  10    4    5 1
  11    4   10 1
  12    4   32 1
  13    5    6 1
  14    5   33 1
  15    5   34 1
  16    6   35 1
  17    6   36 1
  18    7    8 2
  19    7    9 1
  20    9   22 ar
  21    9   26 ar
  22   10   11 2
  23   10   14 1
  24   11   12 1
  25   12   13 2
  26   12   15 1
  27   13   14 1
  28   15   16 ar
  29   15   20 ar
  30   16   17 ar
  31   16   37 1
  32   17   18 ar
  33   17   38 1
  34   18   19 ar
  35   18   39 1
  36   19   20 ar
  37   19   21 1
  38   20   40 1
  39   21   41 1
  40   21   42 1
  41   21   43 1
  42   22   23 ar
  43   22   44 1
  44   23   24 ar
  45   23   45 1
  46   24   25 ar
  47   24   46 1
  48   25   26 ar
  49   25   27 1
  50   26   47 1

#	End of record

