#	Name: ASD01120097
#	Creating user name:	WinNT
#	Creation time:	15. 06. 2019 18:58

#	Modifying user name:	WinNT
#	Modification time:	15. 06. 2019 18:58

#	Program:	/corina/corina34_cracker 3.40 0067  02.08.2006

@<TRIPOS>MOLECULE
ASD01120097
  63   66    0    0    0
SMALL
NO_CHARGES


@<TRIPOS>ATOM
   1 C1            -0.0157     1.4014    -0.0339 C.ar    
   2 C2             0.0044    -0.0001    -0.0548 C.ar    
   3 C3            -1.1694    -0.7207    -0.0458 C.ar    
   4 C4            -2.3944    -0.0434    -0.0155 C.ar    
   5 C5            -2.4068     1.3734     0.0055 C.ar    
   6 C6            -1.1995     2.0821     0.0010 C.ar    
   7 N7            -3.5659    -0.6987    -0.0060 N.ar    
   8 C8            -4.6980    -0.0366     0.0222 C.ar    
   9 N9            -4.7583     1.2854     0.0421 N.ar    
  10 C10           -3.6603     2.0297     0.0356 C.ar    
  11 N11           -3.7382     3.4079     0.0561 N.pl3   
  12 C12           -4.9822     4.0391    -0.0355 C.ar    
  13 C13           -5.2113     5.2233     0.6489 C.ar    
  14 C14           -6.4518     5.8485     0.5541 C.ar    
  15 C15           -7.4562     5.2810    -0.2277 C.ar    
  16 C16           -7.2204     4.1016    -0.9062 C.ar    
  17 C17           -5.9882     3.4830    -0.8172 C.ar    
  18 C18           -6.7039     7.1157     1.2842 C.2     
  19 C19           -7.8998     7.7683     1.2256 C.2     
  20 S20           -7.8111     9.1785     2.1894 S.3     
  21 C21           -6.1468     8.7996     2.6191 C.2     
  22 N22           -5.7926     7.6881     2.0390 N.2     
  23 C23           -5.2900     9.6099     3.5016 C.2     
  24 O24            1.1564     2.0908    -0.0429 O.3     
  25 O25            1.1945    -0.6547    -0.0846 O.3     
  26 C26           -5.9876    -0.8162     0.0317 C.3     
  27 N27           -6.3841    -1.0899     1.4195 N.3     
  28 N28           -5.7697    10.7428     4.0518 N.am    
  29 O29           -4.1497     9.2565     3.7338 O.2     
  30 C30            1.0702     3.5171    -0.0206 C.3     
  31 C31            2.4792     4.1134    -0.0348 C.3     
  32 C32            1.1490    -2.0828    -0.1047 C.3     
  33 C33            2.5744    -2.6380    -0.1371 C.3     
  34 C34           -7.7464    -1.6363     1.4798 C.3     
  35 C35           -5.4258    -1.9915     2.0727 C.3     
  36 H36           -1.1450    -1.8003    -0.0623 H       
  37 H37           -1.2042     3.1620     0.0169 H       
  38 H38           -2.9298     3.9383     0.1342 H       
  39 H39           -4.4299     5.6592     1.2538 H       
  40 H40           -8.4195     5.7636    -0.3027 H       
  41 H41           -8.0002     3.6635    -1.5115 H       
  42 H42           -5.8086     2.5609    -1.3500 H       
  43 H43           -8.7630     7.4471     0.6615 H       
  44 H44           -6.7671    -0.2351    -0.4610 H       
  45 H45           -5.8467    -1.7582    -0.4984 H       
  46 H46           -6.6792    11.0246     3.8667 H       
  47 H47           -5.2054    11.2764     4.6330 H       
  48 H48            0.5210     3.8616    -0.8968 H       
  49 H49            0.5500     3.8356     0.8827 H       
  50 H50            2.4135     5.2013    -0.0178 H       
  51 H51            3.0284     3.7688     0.8414 H       
  52 H52            2.9994     3.7949    -0.9382 H       
  53 H53            0.6391    -2.4427     0.7889 H       
  54 H54            0.6088    -2.4167    -0.9906 H       
  55 H55            3.0843    -2.2781    -1.0308 H       
  56 H56            3.1146    -2.3041     0.7488 H       
  57 H57            2.5397    -3.7273    -0.1525 H       
  58 H58           -7.7900    -2.5669     0.9139 H       
  59 H59           -8.0146    -1.8297     2.5184 H       
  60 H60           -8.4453    -0.9177     1.0518 H       
  61 H61           -4.4378    -1.5311     2.0758 H       
  62 H62           -5.7433    -2.1774     3.0988 H       
  63 H63           -5.3854    -2.9349     1.5283 H       
@<TRIPOS>BOND
   1    1    2 ar
   2    1   24 1
   3    1    6 ar
   4    2    3 ar
   5    2   25 1
   6    3    4 ar
   7    3   36 1
   8    4    5 ar
   9    4    7 ar
  10    5    6 ar
  11    5   10 ar
  12    6   37 1
  13    7    8 ar
  14    8    9 ar
  15    8   26 1
  16    9   10 ar
  17   10   11 1
  18   11   12 1
  19   11   38 1
  20   12   13 ar
  21   12   17 ar
  22   13   14 ar
  23   13   39 1
  24   14   15 ar
  25   14   18 1
  26   15   16 ar
  27   15   40 1
  28   16   17 ar
  29   16   41 1
  30   17   42 1
  31   18   19 2
  32   18   22 1
  33   19   20 1
  34   19   43 1
  35   20   21 1
  36   21   22 2
  37   21   23 1
  38   23   28 am
  39   23   29 2
  40   24   30 1
  41   25   32 1
  42   26   27 1
  43   26   44 1
  44   26   45 1
  45   27   34 1
  46   27   35 1
  47   28   46 1
  48   28   47 1
  49   30   31 1
  50   30   48 1
  51   30   49 1
  52   31   50 1
  53   31   51 1
  54   31   52 1
  55   32   33 1
  56   32   53 1
  57   32   54 1
  58   33   55 1
  59   33   56 1
  60   33   57 1
  61   34   58 1
  62   34   59 1
  63   34   60 1
  64   35   61 1
  65   35   62 1
  66   35   63 1

#	End of record

