#	Name: ASD02038681
#	Creating user name:	WinNT
#	Creation time:	15. 06. 2019 20:17

#	Modifying user name:	WinNT
#	Modification time:	15. 06. 2019 20:17

#	Program:	/corina/corina34_cracker 3.40 0067  02.08.2006

@<TRIPOS>MOLECULE
ASD02038681
  46   47    0    0    0
SMALL
NO_CHARGES


@<TRIPOS>ATOM
   1 C1             0.6835     0.7946     0.6127 C.ar    
   2 C2             0.7361    -0.5832     0.5342 C.ar    
   3 C3             1.9565    -1.2329     0.5644 C.ar    
   4 C4             2.0100    -2.7365     0.4785 C.3     
   5 C5             2.1090    -3.1604    -0.9883 C.3     
   6 C6             2.1625    -4.6640    -1.0742 C.2     
   7 N7             2.2518    -5.2675    -2.2760 N.am    
   8 N8             2.3016    -6.6654    -2.3558 N.am    
   9 C9             2.3909    -7.2689    -3.5575 C.2     
  10 C10            3.3786    -6.5170    -6.9052 C.ar    
  11 C11            3.5698    -7.1304    -8.1277 C.ar    
  12 C12            3.0132    -8.3730    -8.3744 C.ar    
  13 C13            2.2629    -9.0045    -7.3968 C.ar    
  14 C14            2.0692    -8.3945    -6.1714 C.ar    
  15 C15            2.6269    -7.1479    -5.9225 C.ar    
  16 C16            1.8582     1.5278     0.7221 C.ar    
  17 C17            3.0824     0.8720     0.7521 C.ar    
  18 C18            3.1279    -0.5060     0.6728 C.ar    
  19 N19            2.4324    -6.5278    -4.6825 N.am    
  20 O20            2.4341    -8.4821    -3.6269 O.2     
  21 Cl21           3.2555    -9.1413    -9.9122 Cl      
  22 O22            2.1252    -5.3309    -0.0619 O.2     
  23 Cl23           1.5656   -10.5631    -7.7098 Cl      
  24 N24            1.8086     2.9215     0.8012 N.am    
  25 S25            1.3305     3.6545     2.2071 S.o2    
  26 O26            0.0893     3.0372     2.5196 O.2     
  27 C27            2.5978     3.1838     3.4167 C.3     
  28 O28            1.4060     5.0443     1.9209 O.2     
  29 H29           -0.2697     1.3016     0.5845 H       
  30 H30           -0.1768    -1.1539     0.4495 H       
  31 H31            2.8821    -3.1007     1.0215 H       
  32 H32            1.1061    -3.1580     0.9183 H       
  33 H33            1.2368    -2.7962    -1.5314 H       
  34 H34            3.0129    -2.7389    -1.4281 H       
  35 H35            2.2817    -4.7341    -3.0856 H       
  36 H36            2.2717    -7.1988    -1.5462 H       
  37 H37            3.8171    -5.5491    -6.7120 H       
  38 H38            4.1540    -6.6396    -8.8920 H       
  39 H39            1.4834    -8.8866    -5.4092 H       
  40 H40            3.9976     1.4391     0.8368 H       
  41 H41            4.0793    -1.0165     0.6964 H       
  42 H42            2.3275    -5.5648    -4.6329 H       
  43 H43            2.0543     3.4599     0.0327 H       
  44 H44            3.5556     3.6153     3.1259 H       
  45 H45            2.3158     3.5557     4.4017 H       
  46 H46            2.6835     2.0977     3.4492 H       
@<TRIPOS>BOND
   1    1    2 ar
   2    1   16 ar
   3    1   29 1
   4    2    3 ar
   5    2   30 1
   6    3    4 1
   7    3   18 ar
   8    4    5 1
   9    4   31 1
  10    4   32 1
  11    5    6 1
  12    5   33 1
  13    5   34 1
  14    6    7 am
  15    6   22 2
  16    7    8 1
  17    7   35 1
  18    8    9 am
  19    8   36 1
  20    9   19 am
  21    9   20 2
  22   10   11 ar
  23   10   15 ar
  24   10   37 1
  25   11   12 ar
  26   11   38 1
  27   12   13 ar
  28   12   21 1
  29   13   14 ar
  30   13   23 1
  31   14   15 ar
  32   14   39 1
  33   15   19 1
  34   16   17 ar
  35   16   24 1
  36   17   18 ar
  37   17   40 1
  38   18   41 1
  39   19   42 1
  40   24   25 am
  41   24   43 1
  42   25   26 2
  43   25   27 1
  44   25   28 2
  45   27   44 1
  46   27   45 1
  47   27   46 1

#	End of record

