#	Name: ASD04840062
#	Creating user name:	WinNT
#	Creation time:	15. 06. 2019 20:52

#	Modifying user name:	WinNT
#	Modification time:	15. 06. 2019 20:52

#	Program:	/corina/corina34_cracker 3.40 0067  02.08.2006

@<TRIPOS>MOLECULE
ASD04840062
  45   48    0    0    0
SMALL
NO_CHARGES


@<TRIPOS>ATOM
   1 C1            -0.0170     1.4012     0.0097 C.ar    
   2 C2             0.0021    -0.0041     0.0020 C.ar    
   3 C3             1.1937    -0.6612    -0.0128 C.ar    
   4 C4             2.3991     0.0385    -0.0205 C.ar    
   5 C5             2.4194     1.3992    -0.0130 C.ar    
   6 C6             1.2086     2.1126     0.0019 C.ar    
   7 C7             1.1896     3.5179     0.0095 C.ar    
   8 C8            -0.0020     4.1751     0.0243 C.ar    
   9 C9            -1.2073     3.4754     0.0321 C.ar    
  10 C10           -1.2277     2.1147     0.0193 C.ar    
  11 C11           -2.5417     1.3768     0.0227 C.3     
  12 O12           -3.6167     2.3182     0.0326 O.3     
  13 C13           -4.8763     1.8147     0.0368 C.ar    
  14 C14           -5.9815     2.6799     0.0465 C.ar    
  15 C15           -7.2772     2.1538     0.0508 C.ar    
  16 C16           -7.4685     0.8020     0.0460 C.ar    
  17 C17           -6.3738    -0.0647     0.0363 C.ar    
  18 C18           -5.0778     0.4453     0.0257 C.ar    
  19 C19           -5.7771     4.1384     0.0527 C.2     
  20 O20           -6.8394     4.9678     0.0621 O.3     
  21 O21           -4.6505     4.5941     0.0494 O.2     
  22 C22           -6.5917    -1.5315     0.0312 C.ar    
  23 C23           -7.8870    -2.0464     0.0360 C.ar    
  24 C24           -8.0837    -3.4124     0.0307 C.ar    
  25 C25           -6.9984    -4.2701     0.0211 C.ar    
  26 C26           -5.7107    -3.7648     0.0167 C.ar    
  27 C27           -5.5019    -2.4006     0.0157 C.ar    
  28 H28           -0.9241    -0.5595     0.0082 H       
  29 H29            1.2056    -1.7412    -0.0184 H       
  30 H30            3.3309    -0.5074    -0.0323 H       
  31 H31            3.3610     1.9281    -0.0183 H       
  32 H32            2.1158     4.0733     0.0039 H       
  33 H33           -0.0138     5.2550     0.0305 H       
  34 H34           -2.1392     4.0212     0.0443 H       
  35 H35           -2.6115     0.7550    -0.8698 H       
  36 H36           -2.6023     0.7467     0.9101 H       
  37 H37           -8.1284     2.8184     0.0583 H       
  38 H38           -8.4713     0.4012     0.0501 H       
  39 H39           -4.2320    -0.2262     0.0134 H       
  40 H40           -6.6552     5.9171     0.0658 H       
  41 H41           -8.7351    -1.3777     0.0442 H       
  42 H42           -9.0869    -3.8125     0.0344 H       
  43 H43           -7.1571    -5.3383     0.0173 H       
  44 H44           -4.8671    -4.4391     0.0096 H       
  45 H45           -4.4962    -2.0072     0.0078 H       
@<TRIPOS>BOND
   1    1    2 ar
   2    1    6 ar
   3    1   10 ar
   4    2    3 ar
   5    2   28 1
   6    3    4 ar
   7    3   29 1
   8    4    5 ar
   9    4   30 1
  10    5    6 ar
  11    5   31 1
  12    6    7 ar
  13    7    8 ar
  14    7   32 1
  15    8    9 ar
  16    8   33 1
  17    9   10 ar
  18    9   34 1
  19   10   11 1
  20   11   12 1
  21   11   35 1
  22   11   36 1
  23   12   13 1
  24   13   14 ar
  25   13   18 ar
  26   14   15 ar
  27   14   19 1
  28   15   16 ar
  29   15   37 1
  30   16   17 ar
  31   16   38 1
  32   17   18 ar
  33   17   22 1
  34   18   39 1
  35   19   20 1
  36   19   21 2
  37   20   40 1
  38   22   23 ar
  39   22   27 ar
  40   23   24 ar
  41   23   41 1
  42   24   25 ar
  43   24   42 1
  44   25   26 ar
  45   25   43 1
  46   26   27 ar
  47   26   44 1
  48   27   45 1

#	End of record

