#	Name: ASD01148042
#	Creating user name:	WinNT
#	Creation time:	15. 06. 2019 19:01

#	Modifying user name:	WinNT
#	Modification time:	15. 06. 2019 19:01

#	Program:	/corina/corina34_cracker 3.40 0067  02.08.2006

@<TRIPOS>MOLECULE
ASD01148042
  46   47    0    0    0
SMALL
NO_CHARGES


@<TRIPOS>ATOM
   1 C1             2.7299    -1.4172    -0.7118 C.ar    
   2 C2             3.8745    -2.1521    -0.4655 C.ar    
   3 C3             5.0465    -1.5089    -0.1140 C.ar    
   4 C4             5.0741    -0.1308    -0.0093 C.ar    
   5 C5             3.9297     0.6042    -0.2565 C.ar    
   6 C6             2.7573    -0.0391    -0.6066 C.ar    
   7 C7             3.9595     2.1065    -0.1414 C.3     
   8 N8             4.3863     2.6873    -1.4214 N.3     
   9 C9             3.2867     2.6800    -2.3955 C.3     
  10 C10            2.4517     3.9516    -2.2316 C.3     
  11 O11            1.9811     4.0422    -0.8854 O.3     
  12 C12            3.8524     2.6270    -3.7913 C.2     
  13 O13            5.0464     2.5439    -3.9564 O.2     
  14 O14            3.0298     2.6720    -4.8510 O.3     
  15 C15            3.6482     2.7318    -6.1634 C.3     
  16 C16            4.9140     4.0452    -1.2334 C.3     
  17 C17            5.6571     4.4715    -2.4733 C.ar    
  18 C18            5.0379     5.2827    -3.4057 C.ar    
  19 C19            6.9599     4.0559    -2.6754 C.ar    
  20 C20            7.6416     4.4469    -3.8127 C.ar    
  21 C21            7.0202     5.2531    -4.7480 C.ar    
  22 C22            5.7195     5.6736    -4.5430 C.ar    
  23 C23            1.0901     5.1350    -0.6534 C.3     
  24 F24            1.7059     6.3294    -1.0424 F       
  25 F25           -0.0795     4.9492    -1.3983 F       
  26 H26            1.8153    -1.9194    -0.9907 H       
  27 H27            3.8530    -3.2288    -0.5473 H       
  28 H28            5.9406    -2.0831     0.0791 H       
  29 H29            5.9896     0.3716     0.2659 H       
  30 H30            1.8633     0.5351    -0.8001 H       
  31 H31            2.9634     2.4715     0.1091 H       
  32 H32            4.6604     2.3971     0.6411 H       
  33 H33            2.6564     1.8071    -2.2255 H       
  34 H34            3.0664     4.8220    -2.4610 H       
  35 H35            1.6011     3.9179    -2.9124 H       
  36 H36            4.3317     3.5798    -6.2047 H       
  37 H37            4.2008     1.8103    -6.3469 H       
  38 H38            2.8762     2.8500    -6.9238 H       
  39 H39            4.0890     4.7335    -1.0497 H       
  40 H40            5.5932     4.0563    -0.3810 H       
  41 H41            4.0214     5.6107    -3.2458 H       
  42 H42            7.4454     3.4260    -1.9446 H       
  43 H43            8.6597     4.1228    -3.9703 H       
  44 H44            7.5529     5.5588    -5.6364 H       
  45 H45            5.2340     6.3035    -5.2737 H       
  46 H46            0.8418     5.1827     0.4069 H       
@<TRIPOS>BOND
   1    1    2 ar
   2    1    6 ar
   3    1   26 1
   4    2    3 ar
   5    2   27 1
   6    3    4 ar
   7    3   28 1
   8    4    5 ar
   9    4   29 1
  10    5    6 ar
  11    5    7 1
  12    6   30 1
  13    7    8 1
  14    7   31 1
  15    7   32 1
  16    8    9 1
  17    8   16 1
  18    9   10 1
  19    9   12 1
  20    9   33 1
  21   10   11 1
  22   10   34 1
  23   10   35 1
  24   11   23 1
  25   12   13 2
  26   12   14 1
  27   14   15 1
  28   15   36 1
  29   15   37 1
  30   15   38 1
  31   16   17 1
  32   16   39 1
  33   16   40 1
  34   17   18 ar
  35   17   19 ar
  36   18   22 ar
  37   18   41 1
  38   19   20 ar
  39   19   42 1
  40   20   21 ar
  41   20   43 1
  42   21   22 ar
  43   21   44 1
  44   22   45 1
  45   23   24 1
  46   23   25 1
  47   23   46 1

#	End of record

