#	Name: ASD01140117
#	Creating user name:	WinNT
#	Creation time:	15. 06. 2019 19:00

#	Modifying user name:	WinNT
#	Modification time:	15. 06. 2019 19:00

#	Program:	/corina/corina34_cracker 3.40 0067  02.08.2006

@<TRIPOS>MOLECULE
ASD01140117
  43   43    0    0    0
SMALL
NO_CHARGES


@<TRIPOS>ATOM
   1 C1            -0.0640     1.3149    -0.3914 C.3     
   2 C2             0.1234    -0.2102    -0.2440 C.3     
   3 C3             1.6298    -0.4052    -0.5246 C.3     
   4 C4             2.1497     0.9892    -0.8089 C.2     
   5 O5             1.2802     1.8741    -0.2878 O.3     
   6 O6             3.1681     1.2595    -1.4001 O.2     
   7 N7            -0.2107    -0.6440     1.1148 N.am    
   8 C8             2.3288    -0.9955     0.7017 C.3     
   9 C9             1.8329    -1.3088    -1.7425 C.3     
  10 S10           -1.7177    -1.2461     1.4449 S.o2    
  11 C11            3.7935    -1.2822     0.3651 C.3     
  12 C12            4.5241    -1.7508     1.6250 C.3     
  13 C13            1.1674    -0.6740    -2.9652 C.3     
  14 C14            1.2845    -1.6229    -4.1597 C.3     
  15 N15           -1.8784    -2.6580     0.5946 N.am    
  16 O16           -1.7145    -1.6039     2.8201 O.2     
  17 O17           -2.6475    -0.3307     0.8821 O.2     
  18 C18           -1.4759    -3.9289     1.2023 C.3     
  19 C19           -2.4232    -2.6363    -0.7652 C.3     
  20 H20           -0.4982     1.5509    -1.3629 H       
  21 H21           -0.6961     1.6979     0.4097 H       
  22 H22           -0.4779    -0.7451    -0.9791 H       
  23 H23            0.4508    -0.5786     1.8212 H       
  24 H24            2.2779    -0.2845     1.5263 H       
  25 H25            1.8342    -1.9229     0.9905 H       
  26 H26            2.8996    -1.4299    -1.9312 H       
  27 H27            1.3850    -2.2838    -1.5502 H       
  28 H28            3.8458    -2.0607    -0.3960 H       
  29 H29            4.2643    -0.3740    -0.0113 H       
  30 H30            5.5676    -1.9551     1.3852 H       
  31 H31            4.4718    -0.9723     2.3861 H       
  32 H32            4.0533    -2.6591     2.0014 H       
  33 H33            0.1150    -0.4882    -2.7506 H       
  34 H34            1.6623     0.2684    -3.1999 H       
  35 H35            2.3369    -1.8087    -4.3743 H       
  36 H36            0.7897    -2.5653    -3.9250 H       
  37 H37            0.8104    -1.1707    -5.0308 H       
  38 H38           -2.0581    -4.0991     2.1079 H       
  39 H39           -1.6543    -4.7411     0.4976 H       
  40 H40           -0.4159    -3.8919     1.4533 H       
  41 H41           -1.6101    -2.5113    -1.4803 H       
  42 H42           -2.9411    -3.5746    -0.9641 H       
  43 H43           -3.1236    -1.8069    -0.8627 H       
@<TRIPOS>BOND
   1    1    2 1
   2    1    5 1
   3    1   20 1
   4    1   21 1
   5    2    3 1
   6    2    7 1
   7    2   22 1
   8    3    4 1
   9    3    9 1
  10    3    8 1
  11    4    5 1
  12    4    6 2
  13    7   10 am
  14    7   23 1
  15    8   11 1
  16    8   24 1
  17    8   25 1
  18    9   13 1
  19    9   26 1
  20    9   27 1
  21   10   15 am
  22   10   16 2
  23   10   17 2
  24   11   12 1
  25   11   28 1
  26   11   29 1
  27   12   30 1
  28   12   31 1
  29   12   32 1
  30   13   14 1
  31   13   33 1
  32   13   34 1
  33   14   35 1
  34   14   36 1
  35   14   37 1
  36   15   18 1
  37   15   19 1
  38   18   38 1
  39   18   39 1
  40   18   40 1
  41   19   41 1
  42   19   42 1
  43   19   43 1

#	End of record

