#	Name: ASD01915063
#	Creating user name:	WinNT
#	Creation time:	15. 06. 2019 20:04

#	Modifying user name:	WinNT
#	Modification time:	15. 06. 2019 20:04

#	Program:	/corina/corina34_cracker 3.40 0067  02.08.2006

@<TRIPOS>MOLECULE
ASD01915063
  40   43    0    0    0
SMALL
NO_CHARGES


@<TRIPOS>ATOM
   1 C1            -0.0169     1.3920     0.0097 C.ar    
   2 C2             0.0021    -0.0041     0.0020 C.ar    
   3 N3            -1.1415    -0.6923     0.0096 N.ar    
   4 C4            -2.3142    -0.1035     0.0244 C.ar    
   5 C5            -2.4179     1.2852     0.0324 C.ar    
   6 C6            -1.2649     2.0492     0.0305 C.ar    
   7 C7             1.3287     1.9586    -0.0001 C.2     
   8 C8             2.3061     1.0549    -0.0143 C.2     
   9 S9             1.6664    -0.5766    -0.0169 S.3     
  10 C10            1.5850     3.4181     0.0048 C.ar    
  11 C11            1.2149     4.1898     1.1052 C.ar    
  12 S12            4.0234     1.4488    -0.0295 S.o2    
  13 O13            4.6884     0.3231    -0.5861 O.2     
  14 O14            4.1297     2.7592    -0.5686 O.2     
  15 C15            4.5485     1.5571     1.6490 C.ar    
  16 C16            5.0220     0.4311     2.2975 C.ar    
  17 C17            4.4916     2.7664     2.3110 C.ar    
  18 C18            4.9082     2.8520     3.6408 C.ar    
  19 C19            5.3805     1.7115     4.2931 C.ar    
  20 C20            5.4375     0.5077     3.6176 C.ar    
  21 C21            1.4565     5.5498     1.1038 C.ar    
  22 C22            2.0647     6.1458     0.0124 C.ar    
  23 C23            2.4334     5.3843    -1.0821 C.ar    
  24 C24            2.2026     4.0240    -1.0891 C.ar    
  25 N25           -3.6751     1.9010     0.0472 N.pl3   
  26 F26            5.8940    -0.5976     4.2462 F       
  27 Cl27           0.9961     6.5131     2.4726 Cl      
  28 C28            4.8517     4.1046     4.3326 C.1     
  29 N29            4.8070     5.0982     4.8815 N.1     
  30 H30           -3.2116    -0.7043     0.0300 H       
  31 H31           -1.3191     3.1278     0.0370 H       
  32 H32            0.7400     3.7253     1.9568 H       
  33 H33            5.0679    -0.5120     1.7732 H       
  34 H34            4.1257     3.6454     1.8012 H       
  35 H35            5.7042     1.7710     5.3217 H       
  36 H36            2.2519     7.2095     0.0153 H       
  37 H37            2.9070     5.8548    -1.9310 H       
  38 H38            2.4911     3.4308    -1.9443 H       
  39 H39           -4.4802     1.3600     0.0520 H       
  40 H40           -3.7411     2.8688     0.0528 H       
@<TRIPOS>BOND
   1    1    2 ar
   2    1    7 1
   3    1    6 ar
   4    2    3 ar
   5    2    9 1
   6    3    4 ar
   7    4    5 ar
   8    4   30 1
   9    5    6 ar
  10    5   25 1
  11    6   31 1
  12    7    8 2
  13    7   10 1
  14    8    9 1
  15    8   12 1
  16   10   11 ar
  17   10   24 ar
  18   11   21 ar
  19   11   32 1
  20   12   13 2
  21   12   14 2
  22   12   15 1
  23   15   16 ar
  24   15   17 ar
  25   16   20 ar
  26   16   33 1
  27   17   18 ar
  28   17   34 1
  29   18   19 ar
  30   18   28 1
  31   19   20 ar
  32   19   35 1
  33   20   26 1
  34   21   22 ar
  35   21   27 1
  36   22   23 ar
  37   22   36 1
  38   23   24 ar
  39   23   37 1
  40   24   38 1
  41   25   39 1
  42   25   40 1
  43   28   29 3

#	End of record

