#	Name: ASD04930059
#	Creating user name:	WinNT
#	Creation time:	15. 06. 2019 20:56

#	Modifying user name:	WinNT
#	Modification time:	15. 06. 2019 20:56

#	Program:	/corina/corina34_cracker 3.40 0067  02.08.2006

@<TRIPOS>MOLECULE
ASD04930059
  60   61    0    0    0
SMALL
NO_CHARGES


@<TRIPOS>ATOM
   1 C1             2.6861     1.2301     2.2533 C.ar    
   2 C2             2.6212    -0.1426     2.1584 C.ar    
   3 C3             2.3946    -0.7505     0.9289 C.ar    
   4 C4             2.2321     0.0074    -0.2096 C.ar    
   5 C5             2.2942     1.3965    -0.1379 C.ar    
   6 C6             2.5228     2.0133     1.1045 C.ar    
   7 C7             2.5889     3.4762     1.1844 C.2     
   8 N8             2.1314     2.1575    -1.2785 N.am    
   9 C9             2.1857     3.4996    -1.2465 C.2     
  10 C10            2.4199     4.2117     0.0090 C.2     
  11 O11            2.8070     4.0958     2.3632 O.3     
  12 O12            2.0369     4.1318    -2.2771 O.2     
  13 C13            2.4764     5.6785     0.0338 C.2     
  14 O14            1.4497     6.3281    -0.0330 O.2     
  15 N15            3.6654     6.3056     0.1306 N.am    
  16 N16            3.7299     7.7024     0.0442 N.am    
  17 C17            4.9189     8.3295     0.1410 C.2     
  18 C18            4.9882     9.8320     0.0481 C.3     
  19 O19            5.9332     7.6845     0.3029 O.2     
  20 C20            6.4429    10.2851     0.1876 C.3     
  21 C21            6.5133    11.8105     0.0933 C.3     
  22 C22            7.9680    12.2636     0.2328 C.3     
  23 C23            8.0383    13.7891     0.1385 C.3     
  24 C24            9.4930    14.2421     0.2780 C.3     
  25 C25            9.5634    15.7676     0.1836 C.3     
  26 C26           11.0181    16.2207     0.3232 C.3     
  27 C27           11.0884    17.7461     0.2288 C.3     
  28 C28           12.5431    18.1992     0.3684 C.3     
  29 C29           12.6135    19.7246     0.2740 C.3     
  30 F30            2.7788    -0.9014     3.2649 F       
  31 H31            2.8578     1.7002     3.2104 H       
  32 H32            2.3460    -1.8276     0.8657 H       
  33 H33            2.0566    -0.4763    -1.1592 H       
  34 H34            1.9741     1.7113    -2.1254 H       
  35 H35            2.9106     5.0545     2.2904 H       
  36 H36            4.4766     5.7897     0.2601 H       
  37 H37            2.9187     8.2183    -0.0853 H       
  38 H38            4.5982    10.1547    -0.9172 H       
  39 H39            4.3920    10.2733     0.8468 H       
  40 H40            6.8330     9.9624     1.1530 H       
  41 H41            7.0391     9.8438    -0.6110 H       
  42 H42            6.1232    12.1332    -0.8720 H       
  43 H43            5.9171    12.2518     0.8920 H       
  44 H44            8.3580    11.9409     1.1981 H       
  45 H45            8.5642    11.8223    -0.5659 H       
  46 H46            7.6483    14.1117    -0.8269 H       
  47 H47            7.4421    14.2304     0.9371 H       
  48 H48            9.8831    13.9194     1.2433 H       
  49 H49           10.0892    13.8008    -0.5207 H       
  50 H50            9.1734    16.0903    -0.7817 H       
  51 H51            8.9672    16.2089     0.9823 H       
  52 H52           11.4081    15.8980     1.2885 H       
  53 H53           11.6143    15.7793    -0.4755 H       
  54 H54           10.6984    18.0688    -0.7365 H       
  55 H55           10.4922    18.1874     1.0275 H       
  56 H56           12.9332    17.8765     1.3337 H       
  57 H57           13.1393    17.7579    -0.4303 H       
  58 H58           12.2235    20.0473    -0.6913 H       
  59 H59           12.0173    20.1660     1.0727 H       
  60 H60           13.6498    20.0474     0.3734 H       
@<TRIPOS>BOND
   1    1    2 ar
   2    1    6 ar
   3    1   31 1
   4    2    3 ar
   5    2   30 1
   6    3    4 ar
   7    3   32 1
   8    4    5 ar
   9    4   33 1
  10    5    6 ar
  11    5    8 1
  12    6    7 1
  13    7   10 2
  14    7   11 1
  15    8    9 am
  16    8   34 1
  17    9   10 1
  18    9   12 2
  19   10   13 1
  20   11   35 1
  21   13   14 2
  22   13   15 am
  23   15   16 1
  24   15   36 1
  25   16   17 am
  26   16   37 1
  27   17   18 1
  28   17   19 2
  29   18   20 1
  30   18   38 1
  31   18   39 1
  32   20   21 1
  33   20   40 1
  34   20   41 1
  35   21   22 1
  36   21   42 1
  37   21   43 1
  38   22   23 1
  39   22   44 1
  40   22   45 1
  41   23   24 1
  42   23   46 1
  43   23   47 1
  44   24   25 1
  45   24   48 1
  46   24   49 1
  47   25   26 1
  48   25   50 1
  49   25   51 1
  50   26   27 1
  51   26   52 1
  52   26   53 1
  53   27   28 1
  54   27   54 1
  55   27   55 1
  56   28   29 1
  57   28   56 1
  58   28   57 1
  59   29   58 1
  60   29   59 1
  61   29   60 1

#	End of record

