#	Name: ASD00069344
#	Creating user name:	WinNT
#	Creation time:	15. 06. 2019 18:29

#	Modifying user name:	WinNT
#	Modification time:	15. 06. 2019 18:29

#	Program:	/corina/corina34_cracker 3.40 0067  02.08.2006

@<TRIPOS>MOLECULE
ASD00069344
  81   84    0    0    0
SMALL
NO_CHARGES


@<TRIPOS>ATOM
   1 C1            -0.0160     1.3104    -0.0023 C.2     
   2 N2             0.0008    -0.0049    -0.0399 N.2     
   3 C3             1.2707    -0.4245    -0.0667 C.2     
   4 C4             2.0807     0.6752    -0.0449 C.2     
   5 N5             1.2741     1.7616    -0.0045 N.pl3   
   6 C6            -1.2229     2.1550     0.0304 C.2     
   7 O7            -1.1169     3.3663     0.0637 O.2     
   8 N8            -2.4444     1.5854     0.0233 N.am    
   9 C9             1.7043     3.1616     0.0303 C.3     
  10 O10            3.1320     3.2217     0.0153 O.3     
  11 C11            3.6581     4.5499     0.0470 C.3     
  12 C12            5.1870     4.4934     0.0275 C.3     
  13 Si13           5.8730     6.2250     0.0688 Si      
  14 C14            5.3030     7.0819     1.6217 C.3     
  15 C15            7.7346     6.1562     0.0451 C.3     
  16 C16            5.2674     7.1685    -1.4191 C.3     
  17 C17           -3.5896     2.3830     0.1390 C.ar    
  18 C18           -4.7667     1.8458     0.6611 C.ar    
  19 C19           -5.8969     2.6413     0.7734 C.ar    
  20 C20           -5.8551     3.9627     0.3684 C.ar    
  21 C21           -4.6889     4.4949    -0.1493 C.ar    
  22 C22           -3.5555     3.7106    -0.2596 C.ar    
  23 N23           -4.8067     0.5085     1.0697 N.pl3   
  24 C24           -6.0438    -0.0534     1.6177 C.3     
  25 C25           -5.8188    -1.5219     1.9834 C.3     
  26 N26           -7.0592    -2.0852     2.5329 N.3     
  27 C27           -6.9574    -3.5438     2.6747 C.3     
  28 C28           -7.4016    -1.4543     3.8145 C.3     
  29 N29            1.7171    -4.0257    -0.2322 N.pl3   
  30 N30            3.0444    -3.5960    -0.1125 N.2     
  31 C31            3.0531    -2.2910    -0.0402 C.2     
  32 C32            1.7214    -1.8397    -0.1118 C.2     
  33 C33            0.9203    -2.9368    -0.2301 C.2     
  34 C34            1.2712    -5.4165    -0.3464 C.3     
  35 C35            1.9752    -6.0763    -1.5040 C.ar    
  36 C36            3.1807    -6.7220    -1.3027 C.ar    
  37 C37            3.8265    -7.3272    -2.3646 C.ar    
  38 C38            3.2664    -7.2871    -3.6278 C.ar    
  39 C39            2.0604    -6.6421    -3.8290 C.ar    
  40 C40            1.4125    -6.0407    -2.7662 C.ar    
  41 H41            3.1607     0.6775    -0.0571 H       
  42 H42           -2.5302     0.6230    -0.0620 H       
  43 H43            1.3095     3.6848    -0.8406 H       
  44 H44            1.3303     3.6341     0.9385 H       
  45 H45            3.3038     5.1019    -0.8236 H       
  46 H46            3.3246     5.0512     0.9556 H       
  47 H47            5.5413     3.9414     0.8981 H       
  48 H48            5.5205     3.9920    -0.8811 H       
  49 H49            5.6573     6.5299     2.4922 H       
  50 H50            5.7043     8.0950     1.6459 H       
  51 H51            4.2138     7.1222     1.6356 H       
  52 H52            8.0681     5.6548    -0.8635 H       
  53 H53            8.1359     7.1693     0.0692 H       
  54 H54            8.0889     5.6042     0.9156 H       
  55 H55            4.1782     7.2087    -1.4053 H       
  56 H56            5.6688     8.1816    -1.3950 H       
  57 H57            5.6009     6.6671    -2.3277 H       
  58 H58           -6.8099     2.2288     1.1767 H       
  59 H59           -6.7363     4.5809     0.4565 H       
  60 H60           -4.6620     5.5274    -0.4648 H       
  61 H61           -2.6450     4.1309    -0.6605 H       
  62 H62           -4.0153    -0.0468     0.9903 H       
  63 H63           -6.3318     0.5032     2.5095 H       
  64 H64           -6.8364     0.0182     0.8729 H       
  65 H65           -5.5307    -2.0784     1.0916 H       
  66 H66           -5.0261    -1.5935     2.7282 H       
  67 H67           -6.1351    -3.7869     3.3476 H       
  68 H68           -7.8891    -3.9351     3.0834 H       
  69 H69           -6.7725    -3.9918     1.6983 H       
  70 H70           -7.5395    -0.3832     3.6669 H       
  71 H71           -8.3238    -1.8899     4.1991 H       
  72 H72           -6.5953    -1.6218     4.5287 H       
  73 H73            3.9294    -1.6674     0.0578 H       
  74 H74           -0.1569    -2.9345    -0.3080 H       
  75 H75            1.5069    -5.9503     0.5742 H       
  76 H76            0.1945    -5.4402    -0.5146 H       
  77 H77            3.6183    -6.7534    -0.3158 H       
  78 H78            4.7687    -7.8311    -2.2074 H       
  79 H79            3.7713    -7.7593    -4.4575 H       
  80 H80            1.6230    -6.6105    -4.8159 H       
  81 H81            0.4685    -5.5399    -2.9227 H       
@<TRIPOS>BOND
   1    1    2 2
   2    1    5 1
   3    1    6 1
   4    2    3 1
   5    3    4 2
   6    3   32 1
   7    4    5 1
   8    4   41 1
   9    5    9 1
  10    6    7 2
  11    6    8 am
  12    8   17 1
  13    8   42 1
  14    9   10 1
  15    9   43 1
  16    9   44 1
  17   10   11 1
  18   11   12 1
  19   11   45 1
  20   11   46 1
  21   12   13 1
  22   12   47 1
  23   12   48 1
  24   13   14 1
  25   13   15 1
  26   13   16 1
  27   14   49 1
  28   14   50 1
  29   14   51 1
  30   15   52 1
  31   15   53 1
  32   15   54 1
  33   16   55 1
  34   16   56 1
  35   16   57 1
  36   17   18 ar
  37   17   22 ar
  38   18   19 ar
  39   18   23 1
  40   19   20 ar
  41   19   58 1
  42   20   21 ar
  43   20   59 1
  44   21   22 ar
  45   21   60 1
  46   22   61 1
  47   23   24 1
  48   23   62 1
  49   24   25 1
  50   24   63 1
  51   24   64 1
  52   25   26 1
  53   25   65 1
  54   25   66 1
  55   26   27 1
  56   26   28 1
  57   27   67 1
  58   27   68 1
  59   27   69 1
  60   28   70 1
  61   28   71 1
  62   28   72 1
  63   29   30 1
  64   29   33 1
  65   29   34 1
  66   30   31 2
  67   31   32 1
  68   31   73 1
  69   32   33 2
  70   33   74 1
  71   34   35 1
  72   34   75 1
  73   34   76 1
  74   35   36 ar
  75   35   40 ar
  76   36   37 ar
  77   36   77 1
  78   37   38 ar
  79   37   78 1
  80   38   39 ar
  81   38   79 1
  82   39   40 ar
  83   39   80 1
  84   40   81 1

#	End of record

