#	Name: ASD09610087
#	Creating user name:	WinNT
#	Creation time:	15. 06. 2019 21:22

#	Modifying user name:	WinNT
#	Modification time:	15. 06. 2019 21:22

#	Program:	/corina/corina34_cracker 3.40 0067  02.08.2006

@<TRIPOS>MOLECULE
ASD09610087
  54   56    0    0    0
SMALL
NO_CHARGES


@<TRIPOS>ATOM
   1 N1            -0.0194     1.4449    -0.1974 N.pl3   
   2 N2            -0.0092     0.2305    -0.8924 N.2     
   3 C3             1.2278    -0.1164    -1.1189 C.2     
   4 C4             2.0682     0.8776    -0.5692 C.2     
   5 C5             1.2505     1.8351    -0.0029 C.2     
   6 C6             3.5420     0.8897    -0.5951 C.2     
   7 O7             4.1483    -0.0195    -1.1286 O.2     
   8 N8             4.2176     1.9085    -0.0276 N.am    
   9 C9            -1.2144     2.1714     0.2390 C.3     
  10 C10            6.3598     3.0423    -0.0589 C.ar    
  11 C11            5.6112     1.8640     0.0518 C.ar    
  12 C12            6.2596     0.6525     0.2409 C.ar    
  13 C13            7.6385     0.6106     0.3196 C.ar    
  14 C14            8.3805     1.7736     0.2110 C.ar    
  15 C15            7.7493     2.9868     0.0231 C.ar    
  16 C16            5.6775     4.3412    -0.2671 C.ar    
  17 C17            5.9921     5.4321     0.5439 C.ar    
  18 C18            5.3586     6.6391     0.3510 C.ar    
  19 C19            4.4012     6.7717    -0.6571 C.ar    
  20 C20            4.0871     5.6794    -1.4688 C.ar    
  21 C21            4.7249     4.4743    -1.2779 C.ar    
  22 C22            3.7415     8.0267    -0.8581 C.1     
  23 C23            3.2007     9.0556    -1.0228 C.1     
  24 C24            2.5226    10.3457    -1.2294 C.3     
  25 C25            1.5295    10.2203    -2.3865 C.3     
  26 C26            1.7733    10.7378     0.0456 C.3     
  27 O27            3.4917    11.3488    -1.5400 O.3     
  28 C28            2.9350    12.6464    -1.7603 C.3     
  29 C29            1.6810    -1.3597    -1.8400 C.3     
  30 F30            0.7193    -1.7258    -2.7877 F       
  31 F31            2.8976    -1.1084    -2.4832 F       
  32 H32            1.5731     2.7330     0.5031 H       
  33 H33            3.7359     2.6727     0.3258 H       
  34 H34           -1.4951     1.8416     1.2392 H       
  35 H35           -1.0040     3.2408     0.2547 H       
  36 H36           -2.0333     1.9724    -0.4524 H       
  37 H37            5.6862    -0.2587     0.3271 H       
  38 H38            8.1398    -0.3347     0.4669 H       
  39 H39            9.4578     1.7320     0.2740 H       
  40 H40            8.3324     3.8919    -0.0619 H       
  41 H41            6.7325     5.3295     1.3234 H       
  42 H42            5.6018     7.4832     0.9793 H       
  43 H43            3.3468     5.7811    -2.2486 H       
  44 H44            4.4849     3.6306    -1.9079 H       
  45 H45            0.7903     9.4551    -2.1496 H       
  46 H46            1.0274    11.1756    -2.5394 H       
  47 H47            2.0633     9.9409    -3.2948 H       
  48 H48            2.4808    10.8272     0.8700 H       
  49 H49            1.2711    11.6931    -0.1073 H       
  50 H50            1.0340     9.9727     0.2825 H       
  51 H51            2.2361    12.6048    -2.5957 H       
  52 H52            2.4097    12.9735    -0.8630 H       
  53 H53            3.7346    13.3505    -1.9903 H       
  54 H54            1.8101    -2.1695    -1.1219 H       
@<TRIPOS>BOND
   1    1    2 1
   2    1    5 1
   3    1    9 1
   4    2    3 2
   5    3    4 1
   6    3   29 1
   7    4    5 2
   8    4    6 1
   9    5   32 1
  10    6    7 2
  11    6    8 am
  12    8   11 1
  13    8   33 1
  14    9   34 1
  15    9   35 1
  16    9   36 1
  17   10   11 ar
  18   10   15 ar
  19   10   16 1
  20   11   12 ar
  21   12   13 ar
  22   12   37 1
  23   13   14 ar
  24   13   38 1
  25   14   15 ar
  26   14   39 1
  27   15   40 1
  28   16   17 ar
  29   16   21 ar
  30   17   18 ar
  31   17   41 1
  32   18   19 ar
  33   18   42 1
  34   19   20 ar
  35   19   22 1
  36   20   21 ar
  37   20   43 1
  38   21   44 1
  39   22   23 3
  40   23   24 1
  41   24   25 1
  42   24   26 1
  43   24   27 1
  44   25   45 1
  45   25   46 1
  46   25   47 1
  47   26   48 1
  48   26   49 1
  49   26   50 1
  50   27   28 1
  51   28   51 1
  52   28   52 1
  53   28   53 1
  54   29   30 1
  55   29   31 1
  56   29   54 1

#	End of record

