#	Name: ASD01910691
#	Creating user name:	WinNT
#	Creation time:	15. 06. 2019 19:56

#	Modifying user name:	WinNT
#	Modification time:	15. 06. 2019 19:56

#	Program:	/corina/corina34_cracker 3.40 0067  02.08.2006

@<TRIPOS>MOLECULE
ASD01910691
  51   54    0    0    0
SMALL
NO_CHARGES


@<TRIPOS>ATOM
   1 C1             0.0598     1.7636    -0.3708 C.ar    
   2 C2             0.0023     0.3767    -0.4011 C.ar    
   3 C3             1.1881    -0.3344    -0.3555 C.ar    
   4 C4             2.3909     0.3602    -0.2813 C.ar    
   5 N5             2.4041     1.6841    -0.2541 N.ar    
   6 C6             1.2890     2.3880    -0.2967 C.ar    
   7 N7             3.5899    -0.3417    -0.2349 N.3     
   8 C8             4.7345     0.5759    -0.1593 C.3     
   9 C9             6.0169    -0.2303     0.0721 C.3     
  10 N10            6.1149    -1.2621    -0.9715 N.am    
  11 C11            4.9522    -2.1334    -1.2000 C.3     
  12 C12            3.7117    -1.2522    -1.3813 C.3     
  13 C13            7.2404    -1.4055    -1.6989 C.2     
  14 C14            7.3646    -2.5262    -2.6556 C.ar    
  15 O15            8.1533    -0.6137    -1.5686 O.2     
  16 C16            7.9775    -2.3242    -3.8942 C.ar    
  17 C17            8.0943    -3.3692    -4.7898 C.ar    
  18 C18            7.6074    -4.6199    -4.4684 C.ar    
  19 C19            6.9917    -4.8370    -3.2316 C.ar    
  20 C20            6.8755    -3.7870    -2.3210 C.ar    
  21 C21            6.4864    -6.1350    -2.8992 C.1     
  22 C22            6.0721    -7.1991    -2.6266 C.1     
  23 C23            5.5667    -8.4971    -2.2942 C.ar    
  24 C24            4.9514    -8.7148    -1.0585 C.ar    
  25 C25            4.4650    -9.9665    -0.7413 C.ar    
  26 C26            4.5839   -11.0084    -1.6419 C.ar    
  27 C27            5.1944   -10.8029    -2.8742 C.ar    
  28 C28            5.6818    -9.5486    -3.2058 C.ar    
  29 N29            5.3121   -11.8597    -3.7802 N.pl3   
  30 H30           -0.8475     2.3481    -0.4094 H       
  31 H31           -0.9468    -0.1355    -0.4585 H       
  32 H32            1.1800    -1.4142    -0.3768 H       
  33 H33            1.3383     3.4666    -0.2726 H       
  34 H34            4.8177     1.1314    -1.0934 H       
  35 H35            4.5886     1.2721     0.6666 H       
  36 H36            6.8810     0.4316     0.0148 H       
  37 H37            5.9796    -0.7042     1.0531 H       
  38 H38            5.1123    -2.7296    -2.0983 H       
  39 H39            4.8124    -2.7901    -0.3413 H       
  40 H40            2.8239    -1.8818    -1.4416 H       
  41 H41            3.8091    -0.6712    -2.2984 H       
  42 H42            8.3608    -1.3481    -4.1526 H       
  43 H43            8.5686    -3.2066    -5.7463 H       
  44 H44            7.7017    -5.4325    -5.1735 H       
  45 H45            6.4011    -3.9485    -1.3643 H       
  46 H46            4.8568    -7.9036    -0.3518 H       
  47 H47            3.9901   -10.1329     0.2143 H       
  48 H48            4.2014   -11.9858    -1.3873 H       
  49 H49            6.1561    -9.3869    -4.1625 H       
  50 H50            4.9679   -12.7368    -3.5496 H       
  51 H51            5.7379   -11.7165    -4.6399 H       
@<TRIPOS>BOND
   1    1    2 ar
   2    1    6 ar
   3    1   30 1
   4    2    3 ar
   5    2   31 1
   6    3    4 ar
   7    3   32 1
   8    4    5 ar
   9    4    7 1
  10    5    6 ar
  11    6   33 1
  12    7    8 1
  13    7   12 1
  14    8    9 1
  15    8   34 1
  16    8   35 1
  17    9   10 1
  18    9   36 1
  19    9   37 1
  20   10   11 1
  21   10   13 am
  22   11   12 1
  23   11   38 1
  24   11   39 1
  25   12   40 1
  26   12   41 1
  27   13   14 1
  28   13   15 2
  29   14   16 ar
  30   14   20 ar
  31   16   17 ar
  32   16   42 1
  33   17   18 ar
  34   17   43 1
  35   18   19 ar
  36   18   44 1
  37   19   20 ar
  38   19   21 1
  39   20   45 1
  40   21   22 3
  41   22   23 1
  42   23   24 ar
  43   23   28 ar
  44   24   25 ar
  45   24   46 1
  46   25   26 ar
  47   25   47 1
  48   26   27 ar
  49   26   48 1
  50   27   28 ar
  51   27   29 1
  52   28   49 1
  53   29   50 1
  54   29   51 1

#	End of record

