#	Name: ASD02440034
#	Creating user name:	WinNT
#	Creation time:	15. 06. 2019 20:21

#	Modifying user name:	WinNT
#	Modification time:	15. 06. 2019 20:21

#	Program:	/corina/corina34_cracker 3.40 0067  02.08.2006

@<TRIPOS>MOLECULE
ASD02440034
  79   83    0    0    0
SMALL
NO_CHARGES


@<TRIPOS>ATOM
   1 C1             0.3239     3.2138     0.3488 C.3     
   2 C2            -0.4499     2.1503     1.1292 C.3     
   3 C3            -0.5706     0.9296     0.2492 C.2     
   4 C4             0.6850     0.3317    -0.3567 C.3     
   5 C5             1.5113     1.4535    -0.9563 C.3     
   6 C6             1.7081     2.6691    -0.0548 C.3     
   7 C7             2.3908     3.7653    -0.8810 C.3     
   8 C8             2.8523     0.9627    -1.4909 C.3     
   9 C9             3.4291     2.0553    -2.4049 C.3     
  10 C10            3.6599     3.3346    -1.5994 C.3     
  11 C11            3.1188     6.1516    -0.9712 C.3     
  12 C12            2.6488     5.0174    -0.0492 C.3     
  13 C13            4.1034     4.4660    -2.5450 C.3     
  14 C14            4.3790     5.7287    -1.7279 C.3     
  15 C15            4.8742     6.8209    -2.6699 C.3     
  16 C16            5.3346     4.0300    -3.3462 C.3     
  17 C17            5.8753     5.1653    -4.2155 C.3     
  18 C18            6.1283     8.7862    -3.2013 C.3     
  19 C19            5.3193     8.1594    -2.0488 C.3     
  20 C20            6.1835     6.3612    -3.3162 C.3     
  21 C21            6.6420     7.6271    -4.0488 C.3     
  22 C22            1.4327    -0.5052     0.6730 C.3     
  23 C23            0.2266    -0.6113    -1.4924 C.3     
  24 O24           -1.6489     0.4321     0.0269 O.2     
  25 C25            2.4841     2.3651     1.2178 C.3     
  26 C26            4.8113     3.0737    -0.6161 C.3     
  27 H27            5.1533     5.5320    -0.9761 H       
  28 C28            7.2449     5.9906    -2.2787 C.3     
  29 H29            0.9423     1.8234    -1.8466 H       
  30 H30            1.6305     4.0443    -1.6409 H       
  31 C31            2.9842     4.7464    -3.5535 C.3     
  32 H32            4.1313     7.0322    -3.4459 H       
  33 C33            4.1309     9.0455    -1.7526 C.2     
  34 C34            3.9748     9.5532    -0.5552 C.2     
  35 C35            3.1258     9.3447    -2.8349 C.3     
  36 H36           -0.2261     3.4801    -0.5526 H       
  37 H37            0.4570     4.0953     0.9734 H       
  38 H38            0.0436     1.9040     2.0634 H       
  39 H39           -1.4543     2.5301     1.3530 H       
  40 H40            3.5448     0.7413    -0.6891 H       
  41 H41            2.7126     0.0616    -2.0935 H       
  42 H42            4.3801     1.7045    -2.8101 H       
  43 H43            2.7282     2.2248    -3.2178 H       
  44 H44            2.3248     6.4317    -1.6512 H       
  45 H45            3.3606     7.0075    -0.3296 H       
  46 H46            1.7179     5.3341     0.4317 H       
  47 H47            3.3979     4.8476     0.7165 H       
  48 H48            6.1180     3.6558    -2.7007 H       
  49 H49            5.0299     3.2111    -4.0141 H       
  50 H50            6.7979     4.8360    -4.7070 H       
  51 H51            5.1541     5.4459    -4.9808 H       
  52 H52            5.4845     9.4339    -3.7947 H       
  53 H53            6.9639     9.3565    -2.7954 H       
  54 H54            5.9256     8.0204    -1.1633 H       
  55 H55            6.2068     7.6583    -5.0460 H       
  56 H56            7.7298     7.6479    -4.1055 H       
  57 H57            0.8357    -1.3792     0.9336 H       
  58 H58            2.3864    -0.8280     0.2555 H       
  59 H59            1.6111     0.0926     1.5668 H       
  60 H60           -0.3285    -0.0406    -2.2368 H       
  61 H61            1.0991    -1.0671    -1.9605 H       
  62 H62           -0.4138    -1.3913    -1.0807 H       
  63 H63            1.8677     1.7613     1.8838 H       
  64 H64            3.3926     1.8174     0.9673 H       
  65 H65            2.7481     3.2989     1.7142 H       
  66 H66            4.5898     2.1854    -0.0246 H       
  67 H67            5.7359     2.9186    -1.1722 H       
  68 H68            4.9252     3.9321     0.0459 H       
  69 H69            6.8740     5.1784    -1.6535 H       
  70 H70            8.1544     5.6712    -2.7875 H       
  71 H71            7.4627     6.8582    -1.6558 H       
  72 H72            2.0821     5.0470    -3.0207 H       
  73 H73            3.2930     5.5469    -4.2257 H       
  74 H74            2.7815     3.8447    -4.1313 H       
  75 H75            3.1257    10.1863    -0.3436 H       
  76 H76            4.6951     9.3388     0.2204 H       
  77 H77            3.4206     8.8391    -3.7544 H       
  78 H78            2.1423     8.9912    -2.5252 H       
  79 H79            3.0874    10.4202    -3.0079 H       
@<TRIPOS>BOND
   1    1    2 1
   2    1    6 1
   3    1   36 1
   4    1   37 1
   5    2    3 1
   6    2   38 1
   7    2   39 1
   8    3    4 1
   9    3   24 2
  10    4    5 1
  11    4   22 1
  12    4   23 1
  13    5    6 1
  14    5    8 1
  15    5   29 1
  16    6    7 1
  17    6   25 1
  18    7   10 1
  19    7   30 1
  20    7   12 1
  21    8    9 1
  22    8   40 1
  23    8   41 1
  24    9   10 1
  25    9   42 1
  26    9   43 1
  27   10   13 1
  28   10   26 1
  29   11   12 1
  30   11   14 1
  31   11   44 1
  32   11   45 1
  33   12   46 1
  34   12   47 1
  35   13   14 1
  36   13   16 1
  37   13   31 1
  38   14   15 1
  39   14   27 1
  40   15   20 1
  41   15   32 1
  42   15   19 1
  43   16   17 1
  44   16   48 1
  45   16   49 1
  46   17   20 1
  47   17   50 1
  48   17   51 1
  49   18   19 1
  50   18   21 1
  51   18   52 1
  52   18   53 1
  53   19   33 1
  54   19   54 1
  55   20   21 1
  56   20   28 1
  57   21   55 1
  58   21   56 1
  59   22   57 1
  60   22   58 1
  61   22   59 1
  62   23   60 1
  63   23   61 1
  64   23   62 1
  65   25   63 1
  66   25   64 1
  67   25   65 1
  68   26   66 1
  69   26   67 1
  70   26   68 1
  71   28   69 1
  72   28   70 1
  73   28   71 1
  74   31   72 1
  75   31   73 1
  76   31   74 1
  77   33   34 2
  78   33   35 1
  79   34   75 1
  80   34   76 1
  81   35   77 1
  82   35   78 1
  83   35   79 1

#	End of record

