#	Name: ASD06020104
#	Creating user name:	WinNT
#	Creation time:	15. 06. 2019 21:04

#	Modifying user name:	WinNT
#	Modification time:	15. 06. 2019 21:04

#	Program:	/corina/corina34_cracker 3.40 0067  02.08.2006

@<TRIPOS>MOLECULE
ASD06020104
  36   39    0    0    0
SMALL
NO_CHARGES


@<TRIPOS>ATOM
   1 C1             0.0027    -0.0072     0.0093 C.1     
   2 C2            -0.0172     1.4245     0.0313 C.ar    
   3 C3             1.1902     2.1503     0.0274 C.ar    
   4 C4             1.1543     3.5453     0.0491 C.ar    
   5 C5            -0.0618     4.2044     0.0740 C.ar    
   6 C6            -1.2466     3.4893     0.0782 C.ar    
   7 C7            -1.2316     2.1090     0.0507 C.ar    
   8 N8             0.0185    -1.1430    -0.0081 N.1     
   9 F9             2.3061     4.2513     0.0461 F       
  10 C10            6.1983     0.2751    -0.0621 C.ar    
  11 C11            4.8500     0.6480    -0.0399 C.ar    
  12 C12            3.8599    -0.3419    -0.0427 C.ar    
  13 C13            4.2971    -1.6911    -0.0686 C.ar    
  14 C14            5.6282    -1.9641    -0.0891 C.ar    
  15 N15            6.5376    -1.0019    -0.0856 N.ar    
  16 S16            4.0607     2.2208    -0.0063 S.3     
  17 C17            2.4844     1.4402     0.0012 C.2     
  18 N18            2.6228     0.1540    -0.0200 N.2     
  19 N19            7.1875     1.2544    -0.0652 N.pl3   
  20 C20           10.1327    -0.7344     0.3064 C.ar    
  21 N21            8.8665    -0.3808     0.2202 N.ar    
  22 C22            8.5239     0.8912     0.0249 C.ar    
  23 C23            9.5254     1.8506    -0.0882 C.ar    
  24 C24           10.8499     1.4352     0.0087 C.ar    
  25 N25           11.1095     0.1436     0.2047 N.ar    
  26 N26           11.8842     2.3521    -0.0977 N.pl3   
  27 H27           -0.0867     5.2840     0.0907 H       
  28 H28           -2.1899     4.0149     0.0982 H       
  29 H29           -2.1611     1.5590     0.0493 H       
  30 H30            3.5770    -2.4960    -0.0716 H       
  31 H31            5.9531    -2.9939    -0.1084 H       
  32 H32            6.9427     2.1908    -0.1302 H       
  33 H33           10.3769    -1.7737     0.4697 H       
  34 H34            9.2811     2.8905    -0.2472 H       
  35 H35           11.6871     3.2911    -0.2407 H       
  36 H36           12.8050     2.0548    -0.0291 H       
@<TRIPOS>BOND
   1    1    2 1
   2    1    8 3
   3    2    3 ar
   4    2    7 ar
   5    3    4 ar
   6    3   17 1
   7    4    5 ar
   8    4    9 1
   9    5    6 ar
  10    5   27 1
  11    6    7 ar
  12    6   28 1
  13    7   29 1
  14   10   11 ar
  15   10   15 ar
  16   10   19 1
  17   11   12 ar
  18   11   16 1
  19   12   13 ar
  20   12   18 1
  21   13   14 ar
  22   13   30 1
  23   14   15 ar
  24   14   31 1
  25   16   17 1
  26   17   18 2
  27   19   22 1
  28   19   32 1
  29   20   21 ar
  30   20   25 ar
  31   20   33 1
  32   21   22 ar
  33   22   23 ar
  34   23   24 ar
  35   23   34 1
  36   24   25 ar
  37   24   26 1
  38   26   35 1
  39   26   36 1

#	End of record

