#	Name: ASD01122050
#	Creating user name:	WinNT
#	Creation time:	15. 06. 2019 18:59

#	Modifying user name:	WinNT
#	Modification time:	15. 06. 2019 18:59

#	Program:	/corina/corina34_cracker 3.40 0067  02.08.2006

@<TRIPOS>MOLECULE
ASD01122050
  39   41    0    0    0
SMALL
NO_CHARGES


@<TRIPOS>ATOM
   1 C1            -0.0167     1.3824     0.0096 C.ar    
   2 C2             0.0021    -0.0041     0.0020 C.ar    
   3 C3             1.1996    -0.6887    -0.0126 C.ar    
   4 C4             2.3992     0.0106    -0.0198 C.ar    
   5 C5             2.3928     1.4154    -0.0127 C.ar    
   6 C6             1.1660     2.0992     0.0022 C.ar    
   7 N7             3.7279    -0.3702    -0.0341 N.pl3   
   8 C8             4.4784     0.7787    -0.0353 C.2     
   9 N9             3.6845     1.8246    -0.0226 N.2     
  10 N10            1.1407     3.4956     0.0099 N.pl3   
  11 P11            9.5234    -0.8040     0.3829 P.3     
  12 O12            9.9469    -0.7234     1.8891 O.co2   
  13 O13           10.6942    -0.2818    -0.5175 O.co2   
  14 O14            9.2011    -2.2912     0.0100 O.co2   
  15 C15            4.2392    -1.7431    -0.0458 C.3     
  16 C16            5.9480     0.8307    -0.0486 C.2     
  17 C17            6.7077     1.9254    -0.3357 C.2     
  18 C18            8.0520     1.5244    -0.2294 C.2     
  19 C19            8.0503     0.2197     0.1134 C.2     
  20 O20            6.7790    -0.1944     0.2266 O.3     
  21 C21            4.4038    -2.2137    -1.4922 C.3     
  22 C22            5.4813    -1.3747    -2.1821 C.3     
  23 C23            4.8181    -3.6865    -1.5053 C.3     
  24 H24           -0.9613     1.9060     0.0169 H       
  25 H25           -0.9284    -0.5524     0.0079 H       
  26 H26            1.2041    -1.7687    -0.0181 H       
  27 H27            1.9718     3.9957     0.0050 H       
  28 H28            0.2920     3.9652     0.0202 H       
  29 H29            5.2048    -1.7755     0.4590 H       
  30 H30            3.5368    -2.3968     0.4713 H       
  31 H31            6.3474     2.9099    -0.5952 H       
  32 H32            8.9214     2.1442    -0.3919 H       
  33 H33            3.4583    -2.0976    -2.0219 H       
  34 H34            6.4268    -1.4908    -1.6524 H       
  35 H35            5.5985    -1.7100    -3.2126 H       
  36 H36            5.1861    -0.3254    -2.1728 H       
  37 H37            4.0505    -4.2843    -1.0139 H       
  38 H38            4.9353    -4.0218    -2.5358 H       
  39 H39            5.7636    -3.8027    -0.9756 H       
@<TRIPOS>BOND
   1    1    2 ar
   2    1    6 ar
   3    1   24 1
   4    2    3 ar
   5    2   25 1
   6    3    4 ar
   7    3   26 1
   8    4    5 ar
   9    4    7 1
  10    5    6 ar
  11    5    9 1
  12    6   10 1
  13    7    8 1
  14    7   15 1
  15    8    9 2
  16    8   16 1
  17   10   27 1
  18   10   28 1
  19   11   12 ar
  20   11   13 ar
  21   11   14 ar
  22   11   19 1
  23   15   21 1
  24   15   29 1
  25   15   30 1
  26   16   17 2
  27   16   20 1
  28   17   18 1
  29   17   31 1
  30   18   19 2
  31   18   32 1
  32   19   20 1
  33   21   22 1
  34   21   23 1
  35   21   33 1
  36   22   34 1
  37   22   35 1
  38   22   36 1
  39   23   37 1
  40   23   38 1
  41   23   39 1

#	End of record

