#	Name: ASD01883138
#	Creating user name:	WinNT
#	Creation time:	15. 06. 2019 19:45

#	Modifying user name:	WinNT
#	Modification time:	15. 06. 2019 19:45

#	Program:	/corina/corina34_cracker 3.40 0067  02.08.2006

@<TRIPOS>MOLECULE
ASD01883138
  38   39    0    0    0
SMALL
NO_CHARGES


@<TRIPOS>ATOM
   1 N1            -0.0162     1.3417     0.0094 N.am    
   2 C2             0.0021    -0.0041     0.0020 C.2     
   3 C3            -1.2165    -0.7275     0.0098 C.2     
   4 C4            -2.4258    -0.0117     0.0252 C.2     
   5 C5            -2.3786     1.3957     0.0323 C.2     
   6 C6            -1.1849     2.0320     0.0299 C.2     
   7 O7             1.0656    -0.6000    -0.0117 O.2     
   8 C8            -1.2157    -2.1594     0.0016 C.1     
   9 N9            -1.2150    -3.2954    -0.0049 N.1     
  10 C10            1.2512     2.0766     0.0013 C.3     
  11 C11            1.6786     2.3401    -1.4440 C.3     
  12 C12            3.0021     3.1076    -1.4525 C.3     
  13 C13            4.1048     2.2292    -0.8581 C.3     
  14 C14            3.3665     3.4799    -2.8911 C.3     
  15 C15           -3.7227    -0.7227     0.0332 C.ar    
  16 C16           -4.5721    -0.6183     1.1360 C.ar    
  17 C17           -5.7807    -1.2832     1.1379 C.ar    
  18 C18           -6.1524    -2.0530     0.0491 C.ar    
  19 C19           -5.3138    -2.1608    -1.0489 C.ar    
  20 C20           -4.1047    -1.4961    -1.0645 C.ar    
  21 Br21          -7.8108    -2.9616     0.0603 Br      
  22 Br22          -5.8305    -3.2149    -2.5314 Br      
  23 H23           -3.2952     1.9668     0.0441 H       
  24 H24           -1.1612     3.1117     0.0358 H       
  25 H25            1.1240     3.0260     0.5214 H       
  26 H26            2.0167     1.4862     0.5046 H       
  27 H27            1.8057     1.3908    -1.9642 H       
  28 H28            0.9130     2.9306    -1.9474 H       
  29 H29            2.8999     4.0149    -0.8572 H       
  30 H30            4.2071     1.3219    -1.4534 H       
  31 H31            5.0478     2.7760    -0.8642 H       
  32 H32            3.8452     1.9640     0.1668 H       
  33 H33            2.5810     4.1057    -3.3145 H       
  34 H34            4.3095     4.0267    -2.8971 H       
  35 H35            3.4688     2.5726    -3.4864 H       
  36 H36           -4.2833    -0.0184     1.9863 H       
  37 H37           -6.4382    -1.2032     1.9909 H       
  38 H38           -3.4518    -1.5803    -1.9207 H       
@<TRIPOS>BOND
   1    1    2 am
   2    1   10 1
   3    1    6 1
   4    2    3 1
   5    2    7 2
   6    3    4 2
   7    3    8 1
   8    4    5 1
   9    4   15 1
  10    5    6 2
  11    5   23 1
  12    6   24 1
  13    8    9 3
  14   10   11 1
  15   10   25 1
  16   10   26 1
  17   11   12 1
  18   11   27 1
  19   11   28 1
  20   12   13 1
  21   12   14 1
  22   12   29 1
  23   13   30 1
  24   13   31 1
  25   13   32 1
  26   14   33 1
  27   14   34 1
  28   14   35 1
  29   15   16 ar
  30   15   20 ar
  31   16   17 ar
  32   16   36 1
  33   17   18 ar
  34   17   37 1
  35   18   19 ar
  36   18   21 1
  37   19   20 ar
  38   19   22 1
  39   20   38 1

#	End of record

