#	Name: ASD01813120
#	Creating user name:	WinNT
#	Creation time:	15. 06. 2019 19:29

#	Modifying user name:	WinNT
#	Modification time:	15. 06. 2019 19:29

#	Program:	/corina/corina34_cracker 3.40 0067  02.08.2006

@<TRIPOS>MOLECULE
ASD01813120
  45   48    0    0    0
SMALL
NO_CHARGES


@<TRIPOS>ATOM
   1 C1            -0.0229     1.4153     0.1008 C.3     
   2 N2            -0.0037    -0.0494     0.0765 N.pl3   
   3 C3             0.0041    -0.8216    -1.0286 C.2     
   4 C4             0.0229    -2.1239    -0.6221 C.2     
   5 C5             0.0266    -2.1293     0.7863 C.2     
   6 N6             0.0159    -0.8888     1.1970 N.2     
   7 C7             0.0370    -3.3182    -1.5041 C.ar    
   8 C8             0.0372    -3.1644    -2.8885 C.ar    
   9 C9             0.0508    -4.2774    -3.7053 C.ar    
  10 C10            0.0638    -5.5444    -3.1521 C.ar    
  11 C11            0.0786    -6.7554    -4.0489 C.3     
  12 N12            1.4597    -7.2058    -4.2385 N.pl3   
  13 C13            2.0799    -8.1734    -3.4958 C.2     
  14 C14            3.3393    -8.3448    -3.9275 C.2     
  15 C15            3.5425    -7.4107    -5.0375 C.ar    
  16 C16            4.6191    -7.1216    -5.8777 C.ar    
  17 C17            4.4865    -6.1663    -6.8460 C.ar    
  18 C18            3.2897    -5.4808    -7.0009 C.ar    
  19 C19            2.2144    -5.7503    -6.1825 C.ar    
  20 C20            2.3251    -6.7228    -5.1943 C.ar    
  21 S21            4.5237    -9.4781    -3.2812 S.o2    
  22 C22            4.8233   -10.6430    -4.6391 C.3     
  23 O23            5.6767    -8.6823    -3.0434 O.2     
  24 O24            3.8450   -10.1225    -2.2120 O.2     
  25 C25            0.0637    -5.7043    -1.7757 C.ar    
  26 F26            0.0763    -6.9447    -1.2404 F       
  27 C27            0.0559    -4.5959    -0.9498 C.ar    
  28 H28            0.9999     1.7921     0.0995 H       
  29 H29           -0.5480     1.7864    -0.7793 H       
  30 H30           -0.5349     1.7571     1.0003 H       
  31 H31           -0.0033    -0.4726    -2.0506 H       
  32 H32            0.0401    -3.0059     1.4170 H       
  33 H33            0.0264    -2.1755    -3.3225 H       
  34 H34            0.0510    -4.1581    -4.7786 H       
  35 H35           -0.5044    -7.5542    -3.5905 H       
  36 H36           -0.3552    -6.4974    -5.0150 H       
  37 H37            1.6238    -8.7182    -2.6825 H       
  38 H38            5.5535    -7.6507    -5.7628 H       
  39 H39            5.3199    -5.9427    -7.4956 H       
  40 H40            3.2004    -4.7284    -7.7705 H       
  41 H41            1.2874    -5.2113    -6.3108 H       
  42 H42            5.2075   -10.1020    -5.5038 H       
  43 H43            5.5529   -11.3889    -4.3236 H       
  44 H44            3.8896   -11.1382    -4.9056 H       
  45 H45            0.0603    -4.7203     0.1230 H       
@<TRIPOS>BOND
   1    1    2 1
   2    1   28 1
   3    1   29 1
   4    1   30 1
   5    2    6 1
   6    2    3 1
   7    3    4 2
   8    3   31 1
   9    4    5 1
  10    4    7 1
  11    5    6 2
  12    5   32 1
  13    7   27 ar
  14    7    8 ar
  15    8    9 ar
  16    8   33 1
  17    9   10 ar
  18    9   34 1
  19   10   11 1
  20   10   25 ar
  21   11   12 1
  22   11   35 1
  23   11   36 1
  24   12   20 1
  25   12   13 1
  26   13   14 2
  27   13   37 1
  28   14   15 1
  29   14   21 1
  30   15   20 ar
  31   15   16 ar
  32   16   17 ar
  33   16   38 1
  34   17   18 ar
  35   17   39 1
  36   18   19 ar
  37   18   40 1
  38   19   20 ar
  39   19   41 1
  40   21   22 1
  41   21   23 2
  42   21   24 2
  43   22   42 1
  44   22   43 1
  45   22   44 1
  46   25   26 1
  47   25   27 ar
  48   27   45 1

#	End of record

