#	Name: ASD05940018
#	Creating user name:	WinNT
#	Creation time:	15. 06. 2019 21:04

#	Modifying user name:	WinNT
#	Modification time:	15. 06. 2019 21:04

#	Program:	/corina/corina34_cracker 3.40 0067  02.08.2006

@<TRIPOS>MOLECULE
ASD05940018
  64   68    0    0    0
SMALL
NO_CHARGES


@<TRIPOS>ATOM
   1 N1            -0.0159     1.3181     0.0093 N.ar    
   2 C2             0.0021    -0.0041     0.0020 C.ar    
   3 N3             1.1319    -0.6930    -0.0101 N.ar    
   4 C4             2.3066    -0.0681    -0.0158 C.ar    
   5 C5             2.3274     1.3257    -0.0126 C.ar    
   6 C6             1.1197     2.0168     0.0022 C.ar    
   7 N7             3.4912    -0.7843    -0.0194 N.3     
   8 C8             4.5325    -0.1239    -0.8126 C.3     
   9 C9             4.6626     1.3202    -0.4024 C.2     
  10 N10            3.5574     2.0048    -0.0283 N.am    
  11 N11            1.0976     3.4049     0.0085 N.pl3   
  12 O12           -1.1750    -0.6756     0.0076 O.3     
  13 C13            3.2722    -2.1617    -0.4807 C.3     
  14 O14            5.7473     1.8634    -0.4080 O.2     
  15 C15           -2.3694     0.1089     0.0211 C.3     
  16 C16            4.6022    -2.8335    -0.7061 C.ar    
  17 C17            5.2137    -3.5221     0.3246 C.ar    
  18 C18            6.4331    -4.1344     0.1132 C.ar    
  19 C19            7.0475    -4.0618    -1.1274 C.ar    
  20 C20            6.4360    -3.3787    -2.1572 C.ar    
  21 C21            5.2096    -2.7672    -1.9441 C.ar    
  22 C22            8.3834    -4.7355    -1.3088 C.3     
  23 C23            8.6859    -4.9029    -2.7981 C.3     
  24 N24            8.4861    -3.6063    -3.4646 N.3     
  25 C25            7.0574    -3.2816    -3.5258 C.3     
  26 C26            9.0838    -3.6066    -4.8066 C.3     
  27 C27            8.6468    -2.3486    -5.5598 C.3     
  28 C28            9.2592    -2.1031    -6.9402 C.3     
  29 C29            7.7974    -2.5379    -6.8182 C.3     
  30 C30           -3.5876    -0.8168     0.0256 C.3     
  31 C31           -4.8663     0.0231     0.0401 C.3     
  32 C32           -6.0845    -0.9026     0.0446 C.3     
  33 H33            5.4840    -0.6315    -0.6537 H       
  34 H34            4.2697    -0.1768    -1.8692 H       
  35 H35            3.6126     2.9403     0.2223 H       
  36 H36            1.9298     3.9032     0.0026 H       
  37 H37            0.2500     3.8765     0.0188 H       
  38 H38            2.7102    -2.7125     0.2736 H       
  39 H39            2.7096    -2.1471    -1.4142 H       
  40 H40           -2.3840     0.7330     0.9146 H       
  41 H41           -2.3979     0.7426    -0.8653 H       
  42 H42            4.7391    -3.5808     1.2930 H       
  43 H43            6.9109    -4.6723     0.9186 H       
  44 H44            4.7308    -2.2291    -2.7489 H       
  45 H45            9.1612    -4.1268    -0.8477 H       
  46 H46            8.3623    -5.7153    -0.8315 H       
  47 H47            9.7189    -5.2259    -2.9278 H       
  48 H48            8.0112    -5.6433    -3.2278 H       
  49 H49            6.5580    -3.9788    -4.1985 H       
  50 H50            6.9343    -2.2677    -3.9063 H       
  51 H51           10.1703    -3.6194    -4.7204 H       
  52 H52            8.7521    -4.4902    -5.3518 H       
  53 H53            8.4397    -1.4770    -4.9388 H       
  54 H54            9.4547    -1.0700    -7.2276 H       
  55 H55            9.9734    -2.8379    -7.3118 H       
  56 H56            7.5499    -3.5587    -7.1094 H       
  57 H57            7.0311    -1.7908    -7.0253 H       
  58 H58           -3.5729    -1.4409    -0.8679 H       
  59 H59           -3.5591    -1.4505     0.9120 H       
  60 H60           -4.8810     0.6473     0.9336 H       
  61 H61           -4.8948     0.6569    -0.8463 H       
  62 H62           -6.9955    -0.3042     0.0549 H       
  63 H63           -6.0698    -1.5267    -0.8489 H       
  64 H64           -6.0560    -1.5363     0.9309 H       
@<TRIPOS>BOND
   1    1    2 ar
   2    1    6 ar
   3    2    3 ar
   4    2   12 1
   5    3    4 ar
   6    4    5 ar
   7    4    7 1
   8    5    6 ar
   9    5   10 1
  10    6   11 1
  11    7    8 1
  12    7   13 1
  13    8    9 1
  14    8   33 1
  15    8   34 1
  16    9   10 am
  17    9   14 2
  18   10   35 1
  19   11   36 1
  20   11   37 1
  21   12   15 1
  22   13   16 1
  23   13   38 1
  24   13   39 1
  25   15   30 1
  26   15   40 1
  27   15   41 1
  28   16   17 ar
  29   16   21 ar
  30   17   18 ar
  31   17   42 1
  32   18   19 ar
  33   18   43 1
  34   19   20 ar
  35   19   22 1
  36   20   21 ar
  37   20   25 1
  38   21   44 1
  39   22   23 1
  40   22   45 1
  41   22   46 1
  42   23   24 1
  43   23   47 1
  44   23   48 1
  45   24   25 1
  46   24   26 1
  47   25   49 1
  48   25   50 1
  49   26   27 1
  50   26   51 1
  51   26   52 1
  52   27   28 1
  53   27   29 1
  54   27   53 1
  55   28   29 1
  56   28   54 1
  57   28   55 1
  58   29   56 1
  59   29   57 1
  60   30   31 1
  61   30   58 1
  62   30   59 1
  63   31   32 1
  64   31   60 1
  65   31   61 1
  66   32   62 1
  67   32   63 1
  68   32   64 1

#	End of record

