#	Name: ASD01912635
#	Creating user name:	WinNT
#	Creation time:	15. 06. 2019 20:00

#	Modifying user name:	WinNT
#	Modification time:	15. 06. 2019 20:00

#	Program:	/corina/corina34_cracker 3.40 0067  02.08.2006

@<TRIPOS>MOLECULE
ASD01912635
  39   42    0    0    0
SMALL
NO_CHARGES


@<TRIPOS>ATOM
   1 C1            -0.0264     1.3418     0.2541 C.2     
   2 N2             0.0028    -0.0021    -0.0159 N.pl3   
   3 C3            -1.1913    -0.6642    -0.2590 C.2     
   4 C4            -2.3525    -0.0228    -0.2350 C.2     
   5 N5            -2.4358     1.3307     0.0320 N.am    
   6 C6            -1.3128     2.0396     0.2840 C.2     
   7 C7             1.2832     1.7370     0.4535 C.2     
   8 C8             2.0429     0.5802     0.2880 C.2     
   9 N9             1.2234    -0.4069     0.0131 N.2     
  10 O10           -1.3691     3.2328     0.5214 O.2     
  11 C11           -3.6826     1.9657     0.0469 C.ar    
  12 C12            3.5422     0.4809     0.4034 C.3     
  13 O13            4.0824     1.7672     0.7125 O.3     
  14 C14            5.4315     1.8526     0.8517 C.ar    
  15 C15            6.0234     3.0709     1.1518 C.ar    
  16 C16            7.3950     3.1551     1.2927 C.ar    
  17 C17            8.1779     2.0264     1.1350 C.ar    
  18 C18            7.5905     0.8111     0.8354 C.ar    
  19 C19            6.2188     0.7204     0.6995 C.ar    
  20 C20           -3.9986     2.9011    -0.9299 C.ar    
  21 C21           -5.2301     3.5267    -0.9139 C.ar    
  22 C22           -6.1490     3.2231     0.0731 C.ar    
  23 C23           -5.8378     2.2910     1.0497 C.ar    
  24 C24           -4.6085     1.6575     1.0351 C.ar    
  25 F25           -6.7377     1.9967     2.0134 F       
  26 H26           -1.1757    -1.7228    -0.4723 H       
  27 H27           -3.2599    -0.5750    -0.4304 H       
  28 H28            1.6408     2.7290     0.6873 H       
  29 H29            3.7999    -0.2215     1.1960 H       
  30 H30            3.9569     0.1303    -0.5417 H       
  31 H31            5.4123     3.9529     1.2748 H       
  32 H32            7.8563     4.1034     1.5260 H       
  33 H33            9.2501     2.0942     1.2455 H       
  34 H34            8.2043    -0.0690     0.7120 H       
  35 H35            5.7604    -0.2291     0.4656 H       
  36 H36           -3.2816     3.1396    -1.7016 H       
  37 H37           -5.4752     4.2542    -1.6735 H       
  38 H38           -7.1111     3.7137     0.0832 H       
  39 H39           -4.3655     0.9309     1.7962 H       
@<TRIPOS>BOND
   1    1    2 1
   2    1    7 2
   3    1    6 1
   4    2    3 1
   5    2    9 1
   6    3    4 2
   7    3   26 1
   8    4    5 1
   9    4   27 1
  10    5    6 am
  11    5   11 1
  12    6   10 2
  13    7    8 1
  14    7   28 1
  15    8    9 2
  16    8   12 1
  17   11   20 ar
  18   11   24 ar
  19   12   13 1
  20   12   29 1
  21   12   30 1
  22   13   14 1
  23   14   15 ar
  24   14   19 ar
  25   15   16 ar
  26   15   31 1
  27   16   17 ar
  28   16   32 1
  29   17   18 ar
  30   17   33 1
  31   18   19 ar
  32   18   34 1
  33   19   35 1
  34   20   21 ar
  35   20   36 1
  36   21   22 ar
  37   21   37 1
  38   22   23 ar
  39   22   38 1
  40   23   24 ar
  41   23   25 1
  42   24   39 1

#	End of record

