#	Name: ASD00170954
#	Creating user name:	WinNT
#	Creation time:	15. 06. 2019 18:32

#	Modifying user name:	WinNT
#	Modification time:	15. 06. 2019 18:32

#	Program:	/corina/corina34_cracker 3.40 0067  02.08.2006

@<TRIPOS>MOLECULE
ASD00170954
  44   46    0    0    0
SMALL
NO_CHARGES


@<TRIPOS>ATOM
   1 C1             0.0544     0.9960    -0.2456 C.2     
   2 O2             0.5592     0.9535     0.8617 O.2     
   3 C3             0.7395     0.3670    -1.3953 C.ar    
   4 C4             2.0085    -0.1924    -1.2343 C.ar    
   5 C5             2.6423    -0.7781    -2.3099 C.ar    
   6 C6             2.0224    -0.8119    -3.5481 C.ar    
   7 C7             0.7636    -0.2582    -3.7140 C.ar    
   8 C8             0.1176     0.3251    -2.6444 C.ar    
   9 Cl9            2.8265    -1.5509    -4.8976 Cl      
  10 C10           -1.3694     3.0229    -0.6026 C.2     
  11 C11           -1.2327     1.6640    -0.4374 C.2     
  12 C12           -2.5010     0.9668    -0.4746 C.2     
  13 C13           -3.5344     1.7735    -0.6593 C.2     
  14 S14           -3.0098     3.4418    -0.7991 S.3     
  15 C15           -2.6317    -0.5265    -0.3194 C.3     
  16 N16           -2.7179    -0.8649     1.1075 N.3     
  17 C17           -3.1318    -2.2621     1.2931 C.3     
  18 N18           -0.3233     3.9231    -0.6032 N.pl3   
  19 C19           -1.4446    -0.5979     1.7896 C.3     
  20 C20           -3.4464    -2.5038     2.7469 C.ar    
  21 C21           -4.7301    -2.3031     3.2190 C.ar    
  22 C22           -5.0186    -2.5248     4.5525 C.ar    
  23 C23           -4.0237    -2.9478     5.4140 C.ar    
  24 C24           -2.7402    -3.1494     4.9417 C.ar    
  25 C25           -2.4526    -2.9318     3.6072 C.ar    
  26 H26            2.4929    -0.1663    -0.2694 H       
  27 H27            3.6241    -1.2108    -2.1867 H       
  28 H28            0.2855    -0.2869    -4.6820 H       
  29 H29           -0.8657     0.7526    -2.7739 H       
  30 H30           -4.5626     1.4481    -0.7167 H       
  31 H31           -3.5331    -0.8672    -0.8288 H       
  32 H32           -1.7608    -1.0148    -0.7567 H       
  33 H33           -4.0186    -2.4613     0.6914 H       
  34 H34           -2.3246    -2.9247     0.9809 H       
  35 H35            0.5770     3.6207    -0.4062 H       
  36 H36           -0.4884     4.8584    -0.8007 H       
  37 H37           -1.2683     0.4772     1.8224 H       
  38 H38           -1.4875    -0.9902     2.8057 H       
  39 H39           -0.6330    -1.0828     1.2470 H       
  40 H40           -5.5074    -1.9726     2.5460 H       
  41 H41           -6.0214    -2.3673     4.9215 H       
  42 H42           -4.2490    -3.1203     6.4560 H       
  43 H43           -1.9628    -3.4795     5.6148 H       
  44 H44           -1.4499    -3.0894     3.2383 H       
@<TRIPOS>BOND
   1    1    2 2
   2    1    3 1
   3    1   11 1
   4    3    4 ar
   5    3    8 ar
   6    4    5 ar
   7    4   26 1
   8    5    6 ar
   9    5   27 1
  10    6    7 ar
  11    6    9 1
  12    7    8 ar
  13    7   28 1
  14    8   29 1
  15   10   11 2
  16   10   14 1
  17   10   18 1
  18   11   12 1
  19   12   13 2
  20   12   15 1
  21   13   14 1
  22   13   30 1
  23   15   16 1
  24   15   31 1
  25   15   32 1
  26   16   17 1
  27   16   19 1
  28   17   20 1
  29   17   33 1
  30   17   34 1
  31   18   35 1
  32   18   36 1
  33   19   37 1
  34   19   38 1
  35   19   39 1
  36   20   21 ar
  37   20   25 ar
  38   21   22 ar
  39   21   40 1
  40   22   23 ar
  41   22   41 1
  42   23   24 ar
  43   23   42 1
  44   24   25 ar
  45   24   43 1
  46   25   44 1

#	End of record

