#	Name: ASD03090700
#	Creating user name:	WinNT
#	Creation time:	15. 06. 2019 20:29

#	Modifying user name:	WinNT
#	Modification time:	15. 06. 2019 20:29

#	Program:	/corina/corina34_cracker 3.40 0067  02.08.2006

@<TRIPOS>MOLECULE
ASD03090700
  36   37    0    0    0
SMALL
NO_CHARGES


@<TRIPOS>ATOM
   1 N1            -0.1133     1.4281     0.3405 N.am    
   2 C2             0.2776     0.2106    -0.0853 C.2     
   3 O3             1.4607    -0.0349    -0.2219 O.2     
   4 N4            -0.6428    -0.7349    -0.3597 N.am    
   5 C5            -0.8938    -3.1352    -0.5344 C.ar    
   6 C6            -0.2464    -1.9581    -0.9026 C.ar    
   7 C7             0.8015    -2.0158    -1.8195 C.ar    
   8 C8             1.1610    -3.2485    -2.3324 C.ar    
   9 C9             0.4668    -4.3858    -1.9173 C.ar    
  10 N10           -0.5278    -4.2912    -1.0411 N.ar    
  11 C11            0.8298    -5.6681    -2.4414 C.1     
  12 N12            1.1177    -6.6853    -2.8571 N.1     
  13 C13            0.8450     2.3746     0.7351 C.ar    
  14 C14            0.5575     3.7349     0.6498 C.ar    
  15 C15            1.5047     4.6667     1.0402 C.ar    
  16 C16            2.7374     4.2443     1.5153 C.ar    
  17 C17            3.0227     2.8891     1.5993 C.ar    
  18 C18            2.0765     1.9564     1.2154 C.ar    
  19 O19            3.6675     5.1593     1.8986 O.3     
  20 C20            3.3070     6.5375     1.7851 C.3     
  21 O21           -0.6515     4.1474     0.1834 O.3     
  22 C22           -0.8771     5.5572     0.1234 C.3     
  23 Br23           4.7048     2.3166     2.2462 Br      
  24 H24           -1.0567     1.6516     0.3705 H       
  25 H25           -1.5808    -0.5653    -0.1800 H       
  26 H26           -1.7037    -3.0978     0.1791 H       
  27 H27            1.3206    -1.1185    -2.1226 H       
  28 H28            1.9682    -3.3301    -3.0452 H       
  29 H29            1.2837     5.7218     0.9745 H       
  30 H30            2.2987     0.9018     1.2857 H       
  31 H31            4.1363     7.1589     2.1230 H       
  32 H32            3.0799     6.7691     0.7445 H       
  33 H33            2.4300     6.7356     2.4012 H       
  34 H34           -0.7884     5.9822     1.1232 H       
  35 H35           -0.1378     6.0159    -0.5333 H       
  36 H36           -1.8772     5.7489    -0.2655 H       
@<TRIPOS>BOND
   1    1    2 am
   2    1   13 1
   3    1   24 1
   4    2    3 2
   5    2    4 am
   6    4    6 1
   7    4   25 1
   8    5    6 ar
   9    5   10 ar
  10    5   26 1
  11    6    7 ar
  12    7    8 ar
  13    7   27 1
  14    8    9 ar
  15    8   28 1
  16    9   10 ar
  17    9   11 1
  18   11   12 3
  19   13   14 ar
  20   13   18 ar
  21   14   15 ar
  22   14   21 1
  23   15   16 ar
  24   15   29 1
  25   16   17 ar
  26   16   19 1
  27   17   18 ar
  28   17   23 1
  29   18   30 1
  30   19   20 1
  31   20   31 1
  32   20   32 1
  33   20   33 1
  34   21   22 1
  35   22   34 1
  36   22   35 1
  37   22   36 1

#	End of record

