#	Name: ASD01209340
#	Creating user name:	WinNT
#	Creation time:	15. 06. 2019 19:11

#	Modifying user name:	WinNT
#	Modification time:	15. 06. 2019 19:11

#	Program:	/corina/corina34_cracker 3.40 0067  02.08.2006

@<TRIPOS>MOLECULE
ASD01209340
  63   66    0    0    0
SMALL
NO_CHARGES


@<TRIPOS>ATOM
   1 C1             9.4877    -2.8016     7.7718 C.2     
   2 N2             8.4006    -2.3030     7.1635 N.am    
   3 C3             8.3505    -2.7374     5.8879 C.2     
   4 C4             9.5351    -3.5925     5.7000 C.2     
   5 N5            10.1966    -3.5790     6.9345 N.am    
   6 O6             9.7942    -2.5758     8.9267 O.2     
   7 O7             7.4988    -2.4758     5.0593 O.2     
   8 C8             9.9053    -4.2508     4.5746 C.2     
   9 C9             8.9997    -4.2949     3.4171 C.ar    
  10 C10            9.5127    -4.2021     2.1187 C.ar    
  11 C11            8.6568    -4.2442     1.0387 C.ar    
  12 C12            7.2933    -4.3774     1.2362 C.ar    
  13 C13            6.7778    -4.4698     2.5175 C.ar    
  14 C14            7.6208    -4.4356     3.6079 C.ar    
  15 C15            5.2973    -3.3357     0.1972 C.3     
  16 C16            6.3650    -4.4216     0.0499 C.3     
  17 C17            7.1642    -4.1804    -1.2323 C.3     
  18 C18            6.4675    -6.9198    -0.0485 C.ar    
  19 C19            5.7012    -5.7728    -0.0185 C.ar    
  20 C20            4.3226    -5.8673    -0.0509 C.ar    
  21 C21            3.7222    -7.1082    -0.1102 C.ar    
  22 C22            4.4916    -8.2638    -0.1388 C.ar    
  23 C23            3.7708    -9.5853    -0.1951 C.3     
  24 C24            4.7163   -10.6937    -0.6537 C.3     
  25 C25            5.9810   -10.6396     0.2114 C.3     
  26 C26            6.7618    -9.3790    -0.1549 C.3     
  27 C27            5.8652    -8.1694    -0.1114 C.ar    
  28 C28            7.9110    -9.1912     0.8376 C.3     
  29 C29            7.3344    -9.5322    -1.5654 C.3     
  30 C30            3.2316    -9.9255     1.1957 C.3     
  31 C31            2.6020    -9.4810    -1.1768 C.3     
  32 H32            7.7483    -1.7177     7.5791 H       
  33 H33           11.0192    -4.0469     7.1475 H       
  34 H34           10.8655    -4.7430     4.5280 H       
  35 H35           10.5763    -4.0975     1.9630 H       
  36 H36            9.0512    -4.1728     0.0358 H       
  37 H37            5.7126    -4.5732     2.6632 H       
  38 H38            7.2174    -4.5123     4.6068 H       
  39 H39            5.7774    -2.3584     0.2467 H       
  40 H40            4.6258    -3.3676    -0.6609 H       
  41 H41            4.7279    -3.5074     1.1107 H       
  42 H42            7.9249    -4.9541    -1.3372 H       
  43 H43            6.4927    -4.2124    -2.0903 H       
  44 H44            7.6443    -3.2031    -1.1828 H       
  45 H45            7.5447    -6.8449    -0.0270 H       
  46 H46            3.7175    -4.9730    -0.0296 H       
  47 H47            2.6449    -7.1813    -0.1341 H       
  48 H48            4.2312   -11.6625    -0.5345 H       
  49 H49            4.9805   -10.5412    -1.7001 H       
  50 H50            5.7039   -10.6066     1.2651 H       
  51 H51            6.5945   -11.5200     0.0200 H       
  52 H52            8.5729   -10.0561     0.7950 H       
  53 H53            8.4707    -8.2922     0.5794 H       
  54 H54            7.5080    -9.0913     1.8454 H       
  55 H55            6.5194    -9.6761    -2.2747 H       
  56 H56            7.8925    -8.6342    -1.8304 H       
  57 H57            7.9992   -10.3954    -1.5959 H       
  58 H58            2.5411    -9.1462     1.5183 H       
  59 H59            2.7092   -10.8814     1.1591 H       
  60 H60            4.0604    -9.9911     1.9007 H       
  61 H61            2.9808    -9.2291    -2.1673 H       
  62 H62            2.0777   -10.4357    -1.2203 H       
  63 H63            1.9147    -8.7040    -0.8422 H       
@<TRIPOS>BOND
   1    1    2 am
   2    1    5 am
   3    1    6 2
   4    2    3 am
   5    2   32 1
   6    3    4 1
   7    3    7 2
   8    4    5 1
   9    4    8 2
  10    5   33 1
  11    8    9 1
  12    8   34 1
  13    9   10 ar
  14    9   14 ar
  15   10   11 ar
  16   10   35 1
  17   11   12 ar
  18   11   36 1
  19   12   13 ar
  20   12   16 1
  21   13   14 ar
  22   13   37 1
  23   14   38 1
  24   15   16 1
  25   15   39 1
  26   15   40 1
  27   15   41 1
  28   16   17 1
  29   16   19 1
  30   17   42 1
  31   17   43 1
  32   17   44 1
  33   18   19 ar
  34   18   27 ar
  35   18   45 1
  36   19   20 ar
  37   20   21 ar
  38   20   46 1
  39   21   22 ar
  40   21   47 1
  41   22   23 1
  42   22   27 ar
  43   23   24 1
  44   23   30 1
  45   23   31 1
  46   24   25 1
  47   24   48 1
  48   24   49 1
  49   25   26 1
  50   25   50 1
  51   25   51 1
  52   26   27 1
  53   26   28 1
  54   26   29 1
  55   28   52 1
  56   28   53 1
  57   28   54 1
  58   29   55 1
  59   29   56 1
  60   29   57 1
  61   30   58 1
  62   30   59 1
  63   30   60 1
  64   31   61 1
  65   31   62 1
  66   31   63 1

#	End of record

