#	Name: ASD01140659
#	Creating user name:	WinNT
#	Creation time:	15. 06. 2019 19:01

#	Modifying user name:	WinNT
#	Modification time:	15. 06. 2019 19:01

#	Program:	/corina/corina34_cracker 3.40 0067  02.08.2006

@<TRIPOS>MOLECULE
ASD01140659
  51   53    0    0    0
SMALL
NO_CHARGES


@<TRIPOS>ATOM
   1 C1             0.1269     2.5417    -0.4881 C.3     
   2 C2             0.4200     1.0481    -0.3328 C.3     
   3 C3            -0.8900     0.2929    -0.0991 C.3     
   4 H4            -1.4108     0.7247     0.7554 H       
   5 C5            -0.5864    -1.1805     0.1800 C.3     
   6 N6            -1.7348     0.4001    -1.2912 N.pl3   
   7 C7            -3.1061     0.2758    -1.1793 C.ar    
   8 N8            -3.6445    -0.0227    -0.0068 N.ar    
   9 C9            -4.9461    -0.1513     0.1494 C.ar    
  10 C10           -5.8206     0.0225    -0.9233 C.ar    
  11 C11           -5.3045     0.3380    -2.1797 C.ar    
  12 C12           -3.9190     0.4733    -2.3113 C.ar    
  13 C13           -3.3196     0.8113    -3.6142 C.2     
  14 O14           -3.3925     1.9480    -4.0404 O.2     
  15 C15           -2.6302    -0.2305    -4.4029 C.ar    
  16 C16           -2.6471    -1.5602    -3.9750 C.ar    
  17 C17           -2.0019    -2.5278    -4.7153 C.ar    
  18 C18           -1.3376    -2.1838    -5.8813 C.ar    
  19 Cl19          -0.5279    -3.4081    -6.8082 Cl      
  20 C20           -1.3171    -0.8669    -6.3110 C.ar    
  21 C21           -1.9635     0.1090    -5.5825 C.ar    
  22 C22           -7.2841    -0.1271    -0.7296 C.ar    
  23 C23           -8.1528     0.0420    -1.8059 C.ar    
  24 C24           -9.5132    -0.0983    -1.6200 C.ar    
  25 C25          -10.0147    -0.4058    -0.3681 C.ar    
  26 C26          -11.5011    -0.5577    -0.1714 C.3     
  27 O27          -11.8742    -1.9192    -0.3931 O.3     
  28 C28           -9.1570    -0.5748     0.7038 C.ar    
  29 C29           -7.7944    -0.4429     0.5280 C.ar    
  30 H30            1.0601     3.0797    -0.6546 H       
  31 H31           -0.5376     2.6950    -1.3385 H       
  32 H32           -0.3507     2.9144     0.4180 H       
  33 H33            0.8976     0.6754    -1.2390 H       
  34 H34            1.0845     0.8947     0.5175 H       
  35 H35           -0.0655    -1.6124    -0.6746 H       
  36 H36            0.0422    -1.2603     1.0669 H       
  37 H37           -1.5197    -1.7185     0.3464 H       
  38 H38           -1.3313     0.5584    -2.1589 H       
  39 H39           -5.3426    -0.3957     1.1238 H       
  40 H40           -5.9581     0.4779    -3.0281 H       
  41 H41           -3.1644    -1.8295    -3.0659 H       
  42 H42           -2.0140    -3.5561    -4.3853 H       
  43 H43           -0.7973    -0.6049    -7.2206 H       
  44 H44           -1.9506     1.1346    -5.9208 H       
  45 H45           -7.7624     0.2828    -2.7836 H       
  46 H46          -10.1874     0.0326    -2.4535 H       
  47 H47          -11.7641    -0.2700     0.8465 H       
  48 H48          -12.0285     0.0832    -0.8779 H       
  49 H49          -12.8195    -2.0908    -0.2834 H       
  50 H50           -9.5539    -0.8148     1.6791 H       
  51 H51           -7.1252    -0.5795     1.3647 H       
@<TRIPOS>BOND
   1    1    2 1
   2    1   30 1
   3    1   31 1
   4    1   32 1
   5    2    3 1
   6    2   33 1
   7    2   34 1
   8    3    4 1
   9    3    5 1
  10    3    6 1
  11    5   35 1
  12    5   36 1
  13    5   37 1
  14    6    7 1
  15    6   38 1
  16    7   12 ar
  17    7    8 ar
  18    8    9 ar
  19    9   10 ar
  20    9   39 1
  21   10   11 ar
  22   10   22 1
  23   11   12 ar
  24   11   40 1
  25   12   13 1
  26   13   14 2
  27   13   15 1
  28   15   21 ar
  29   15   16 ar
  30   16   17 ar
  31   16   41 1
  32   17   18 ar
  33   17   42 1
  34   18   19 1
  35   18   20 ar
  36   20   21 ar
  37   20   43 1
  38   21   44 1
  39   22   29 ar
  40   22   23 ar
  41   23   24 ar
  42   23   45 1
  43   24   25 ar
  44   24   46 1
  45   25   26 1
  46   25   28 ar
  47   26   27 1
  48   26   47 1
  49   26   48 1
  50   27   49 1
  51   28   29 ar
  52   28   50 1
  53   29   51 1

#	End of record

