#	Name: ASD02398059
#	Creating user name:	WinNT
#	Creation time:	15. 06. 2019 20:20

#	Modifying user name:	WinNT
#	Modification time:	15. 06. 2019 20:20

#	Program:	/corina/corina34_cracker 3.40 0067  02.08.2006

@<TRIPOS>MOLECULE
ASD02398059
  54   56    0    0    0
SMALL
NO_CHARGES


@<TRIPOS>ATOM
   1 C1            -0.0169     1.3942     0.0097 C.ar    
   2 C2             0.0021    -0.0041     0.0020 C.ar    
   3 C3            -1.1981    -0.7105     0.0102 C.ar    
   4 C4            -2.3984    -0.0288     0.0258 C.ar    
   5 C5            -2.4141     1.3545     0.0333 C.ar    
   6 C6            -1.2286     2.0654     0.0307 C.ar    
   7 C7            -3.6965    -0.7944     0.0341 C.3     
   8 C8            -4.1153    -1.0577     1.4576 C.2     
   9 O9            -3.4300    -0.6641     2.3716 O.2     
  10 O10           -5.2496    -1.7295     1.7101 O.3     
  11 C11            1.2946    -0.7315    -0.0152 C.ar    
  12 C12            2.1654    -0.6364     1.0690 C.ar    
  13 C13            1.6403    -1.5171    -1.1130 C.ar    
  14 C14            2.8442    -2.1923    -1.1234 C.ar    
  15 C15            3.7067    -2.0901    -0.0471 C.ar    
  16 C16            3.3663    -1.3157     1.0477 C.ar    
  17 C17            1.7962     0.2071     2.2620 C.3     
  18 N18            0.8700    -0.5376     3.1188 N.pl3   
  19 C19            0.3836     0.0441     4.2952 C.ar    
  20 O20            1.1487     2.0917     0.0023 O.3     
  21 O21           -0.8863    -1.9193     4.7670 O.3     
  22 C22           -0.4972    -0.6623     5.1113 C.ar    
  23 C23           -0.9755    -0.0817     6.2742 C.ar    
  24 C24           -0.5791     1.1964     6.6230 C.ar    
  25 C25            0.2946     1.8984     5.8135 C.ar    
  26 C26            0.7816     1.3235     4.6546 C.ar    
  27 C27            1.0517     3.5174     0.0109 C.3     
  28 C28           -5.5906    -1.9466     3.1047 C.3     
  29 C29            5.0194    -2.8300    -0.0641 C.3     
  30 F30            5.1371    -3.5433    -1.2618 F       
  31 F31            6.0722    -1.9143     0.0386 F       
  32 F32            5.0677    -3.7191     1.0149 F       
  33 H33           -1.1897    -1.7904     0.0039 H       
  34 H34           -3.3568     1.8813     0.0456 H       
  35 H35           -1.2472     3.1452     0.0366 H       
  36 H36           -4.4665    -0.2095    -0.4689 H       
  37 H37           -3.5624    -1.7426    -0.4865 H       
  38 H38            0.9674    -1.5979    -1.9538 H       
  39 H39            3.1131    -2.8017    -1.9735 H       
  40 H40            4.0436    -1.2395     1.8855 H       
  41 H41            2.6960     0.4519     2.8263 H       
  42 H42            1.3184     1.1263     1.9232 H       
  43 H43            0.5939    -1.4338     2.8707 H       
  44 H44           -0.3150    -2.6172     5.1159 H       
  45 H45           -1.6584    -0.6271     6.9087 H       
  46 H46           -0.9534     1.6476     7.5301 H       
  47 H47            0.6011     2.8964     6.0897 H       
  48 H48            1.4641     1.8740     4.0241 H       
  49 H49            0.5228     3.8402     0.9077 H       
  50 H50            2.0522     3.9498     0.0037 H       
  51 H51            0.5059     3.8497    -0.8721 H       
  52 H52           -4.7981    -2.5180     3.5878 H       
  53 H53           -5.7022    -0.9848     3.6054 H       
  54 H54           -6.5276    -2.4999     3.1677 H       
@<TRIPOS>BOND
   1    1    2 ar
   2    1   20 1
   3    1    6 ar
   4    2    3 ar
   5    2   11 1
   6    3    4 ar
   7    3   33 1
   8    4    5 ar
   9    4    7 1
  10    5    6 ar
  11    5   34 1
  12    6   35 1
  13    7    8 1
  14    7   36 1
  15    7   37 1
  16    8    9 2
  17    8   10 1
  18   10   28 1
  19   11   12 ar
  20   11   13 ar
  21   12   17 1
  22   12   16 ar
  23   13   14 ar
  24   13   38 1
  25   14   15 ar
  26   14   39 1
  27   15   16 ar
  28   15   29 1
  29   16   40 1
  30   17   18 1
  31   17   41 1
  32   17   42 1
  33   18   19 1
  34   18   43 1
  35   19   22 ar
  36   19   26 ar
  37   20   27 1
  38   21   22 1
  39   21   44 1
  40   22   23 ar
  41   23   24 ar
  42   23   45 1
  43   24   25 ar
  44   24   46 1
  45   25   26 ar
  46   25   47 1
  47   26   48 1
  48   27   49 1
  49   27   50 1
  50   27   51 1
  51   28   52 1
  52   28   53 1
  53   28   54 1
  54   29   30 1
  55   29   31 1
  56   29   32 1

#	End of record

