#	Name: ASD01420176
#	Creating user name:	WinNT
#	Creation time:	15. 06. 2019 19:20

#	Modifying user name:	WinNT
#	Modification time:	15. 06. 2019 19:20

#	Program:	/corina/corina34_cracker 3.40 0067  02.08.2006

@<TRIPOS>MOLECULE
ASD01420176
  60   63    0    0    0
SMALL
NO_CHARGES


@<TRIPOS>ATOM
   1 C1            -0.2149     1.0119    -0.2694 C.2     
   2 O2            -0.1824    -0.1989    -0.3788 O.2     
   3 C3             1.0448     3.1866    -0.3278 C.3     
   4 N4             0.9269     1.7252    -0.3318 N.am    
   5 C5             2.2884     1.1878    -0.4166 C.3     
   6 C6             3.2407     2.3562    -0.4643 C.ar    
   7 C7             4.6194     2.4010    -0.5454 C.ar    
   8 C8             5.2764     3.6310    -0.5747 C.ar    
   9 C9             4.5341     4.8119    -0.5218 C.ar    
  10 C10            3.1592     4.7542    -0.4410 C.ar    
  11 C11            2.5113     3.5291    -0.4122 C.ar    
  12 C12            6.7514     3.6837    -0.6609 C.2     
  13 O13            7.4275     2.9536     0.0373 O.2     
  14 N14            7.3464     4.5411    -1.5136 N.am    
  15 C15            8.8075     4.5461    -1.6823 C.3     
  16 C16            9.1250     4.4588    -3.1789 C.3     
  17 N17            8.4140     5.5294    -3.8903 N.3     
  18 C18            6.9582     5.3721    -3.7724 C.3     
  19 C19            6.5514     5.4926    -2.3047 C.3     
  20 C20            8.8247     5.5881    -5.2995 C.3     
  21 C21           -1.5031     1.6995    -0.0748 C.ar    
  22 C22           -2.4117     1.2340     0.8880 C.ar    
  23 C23           -3.6196     1.8862     1.0646 C.ar    
  24 C24           -3.9292     2.9956     0.2914 C.ar    
  25 C25           -3.0293     3.4583    -0.6636 C.ar    
  26 C26           -1.8229     2.8220    -0.8446 C.ar    
  27 C27           -3.3747     4.6643    -1.4986 C.3     
  28 C28           -2.3328     5.7604    -1.2670 C.3     
  29 C29           -3.3845     4.2743    -2.9781 C.3     
  30 O30           -5.1150     3.6320     0.4669 O.3     
  31 O31           -2.1075     0.1484     1.6425 O.3     
  32 H32            0.5184     3.6020    -1.1871 H       
  33 H33            0.6240     3.5886     0.5939 H       
  34 H34            2.4990     0.5751     0.4600 H       
  35 H35            2.3934     0.5885    -1.3210 H       
  36 H36            5.1882     1.4838    -0.5857 H       
  37 H37            5.0356     5.7682    -0.5436 H       
  38 H38            2.5843     5.6675    -0.3997 H       
  39 H39            9.2202     5.4685    -1.2737 H       
  40 H40            9.2386     3.6884    -1.1659 H       
  41 H41           10.1985     4.5721    -3.3302 H       
  42 H42            8.8034     3.4908    -3.5631 H       
  43 H43            6.4602     6.1478    -4.3541 H       
  44 H44            6.6667     4.3914    -4.1483 H       
  45 H45            5.4916     5.2605    -2.1995 H       
  46 H46            6.7430     6.5078    -1.9570 H       
  47 H47            8.5998     4.6377    -5.7834 H       
  48 H48            8.2832     6.3891    -5.8027 H       
  49 H49            9.8959     5.7811    -5.3580 H       
  50 H50           -4.3216     1.5311     1.8046 H       
  51 H51           -1.1251     3.1869    -1.5838 H       
  52 H52           -4.3599     5.0334    -1.2137 H       
  53 H53           -2.5826     6.6327    -1.8710 H       
  54 H54           -2.3258     6.0382    -0.2130 H       
  55 H55           -1.3476     5.3913    -1.5520 H       
  56 H56           -4.1268     3.4934    -3.1431 H       
  57 H57           -3.6343     5.1466    -3.5821 H       
  58 H58           -2.3993     3.9052    -3.2631 H       
  59 H59           -5.0871     4.3419     1.1229 H       
  60 H60           -1.6470     0.3586     2.4664 H       
@<TRIPOS>BOND
   1    1    2 2
   2    1    4 am
   3    1   21 1
   4    3    4 1
   5    3   11 1
   6    3   32 1
   7    3   33 1
   8    4    5 1
   9    5    6 1
  10    5   34 1
  11    5   35 1
  12    6    7 ar
  13    6   11 ar
  14    7    8 ar
  15    7   36 1
  16    8    9 ar
  17    8   12 1
  18    9   10 ar
  19    9   37 1
  20   10   11 ar
  21   10   38 1
  22   12   13 2
  23   12   14 am
  24   14   15 1
  25   14   19 1
  26   15   16 1
  27   15   39 1
  28   15   40 1
  29   16   17 1
  30   16   41 1
  31   16   42 1
  32   17   18 1
  33   17   20 1
  34   18   19 1
  35   18   43 1
  36   18   44 1
  37   19   45 1
  38   19   46 1
  39   20   47 1
  40   20   48 1
  41   20   49 1
  42   21   22 ar
  43   21   26 ar
  44   22   23 ar
  45   22   31 1
  46   23   24 ar
  47   23   50 1
  48   24   25 ar
  49   24   30 1
  50   25   26 ar
  51   25   27 1
  52   26   51 1
  53   27   28 1
  54   27   29 1
  55   27   52 1
  56   28   53 1
  57   28   54 1
  58   28   55 1
  59   29   56 1
  60   29   57 1
  61   29   58 1
  62   30   59 1
  63   31   60 1

#	End of record

