#	Name: ASD03092065
#	Creating user name:	WinNT
#	Creation time:	15. 06. 2019 20:31

#	Modifying user name:	WinNT
#	Modification time:	15. 06. 2019 20:31

#	Program:	/corina/corina34_cracker 3.40 0067  02.08.2006

@<TRIPOS>MOLECULE
ASD03092065
  46   48    0    0    0
SMALL
NO_CHARGES


@<TRIPOS>ATOM
   1 N1             0.2785     0.9014    -0.3967 N.pl3   
   2 C2             0.0770    -0.3547     0.0938 C.2     
   3 C3            -1.2641    -0.4998     0.3086 C.2     
   4 C4            -1.8889     0.6979    -0.0610 C.2     
   5 N5            -0.9676     1.5361    -0.4766 N.2     
   6 N6            -3.2629     0.9592     0.0065 N.pl3   
   7 C7            -3.7457     2.2380    -0.2817 C.ar    
   8 C8            -5.0266     2.3988    -0.7943 C.ar    
   9 C9            -5.5024     3.6653    -1.0788 C.ar    
  10 C10           -4.7039     4.7726    -0.8540 C.ar    
  11 C11           -2.9476     3.3514    -0.0507 C.ar    
  12 C12            1.1193    -1.3735     0.3463 C.ar    
  13 C13            1.5696     1.4857    -0.7680 C.3     
  14 C14            2.3546    -1.3160    -0.3085 C.ar    
  15 C15            3.2979    -2.2868    -0.0432 C.ar    
  16 N16            3.0477    -3.2585     0.8136 N.ar    
  17 C17            1.8965    -3.3496     1.4523 C.ar    
  18 C18            0.8994    -2.4184     1.2513 C.ar    
  19 C19            1.6705    -4.4835     2.4188 C.3     
  20 C20            1.8071     1.2833    -2.2423 C.2     
  21 N21            2.9394     1.7419    -2.8117 N.am    
  22 C22           -3.4260     4.6157    -0.3429 C.ar    
  23 Cl23          -7.1032     3.8664    -1.7195 Cl      
  24 O24            0.9794     0.7077    -2.9165 O.2     
  25 C25            3.1703     1.5451    -4.2449 C.3     
  26 C26            3.9391     2.4372    -1.9973 C.3     
  27 F27           -2.6485     5.6988    -0.1248 F       
  28 H28           -1.7550    -1.3809     0.6946 H       
  29 H29           -3.8795     0.2522     0.2534 H       
  30 H30           -5.6504     1.5350    -0.9708 H       
  31 H31           -5.0775     5.7609    -1.0777 H       
  32 H32           -1.9531     3.2294     0.3523 H       
  33 H33            1.5635     2.5524    -0.5440 H       
  34 H34            2.3644     1.0001    -0.2019 H       
  35 H35            2.5661    -0.5237    -1.0113 H       
  36 H36            4.2542    -2.2513    -0.5438 H       
  37 H37           -0.0403    -2.4992     1.7774 H       
  38 H38            1.9938    -4.1817     3.4150 H       
  39 H39            0.6103    -4.7356     2.4418 H       
  40 H40            2.2439    -5.3535     2.0988 H       
  41 H41            2.7652     2.3926    -4.7979 H       
  42 H42            4.2411     1.4670    -4.4330 H       
  43 H43            2.6764     0.6295    -4.5702 H       
  44 H44            3.5951     2.4875    -0.9642 H       
  45 H45            4.8835     1.8946    -2.0398 H       
  46 H46            4.0826     3.4470    -2.3820 H       
@<TRIPOS>BOND
   1    1    2 1
   2    1   13 1
   3    1    5 1
   4    2    3 2
   5    2   12 1
   6    3    4 1
   7    3   28 1
   8    4    5 2
   9    4    6 1
  10    6    7 1
  11    6   29 1
  12    7    8 ar
  13    7   11 ar
  14    8    9 ar
  15    8   30 1
  16    9   10 ar
  17    9   23 1
  18   10   22 ar
  19   10   31 1
  20   11   22 ar
  21   11   32 1
  22   12   14 ar
  23   12   18 ar
  24   13   20 1
  25   13   33 1
  26   13   34 1
  27   14   15 ar
  28   14   35 1
  29   15   16 ar
  30   15   36 1
  31   16   17 ar
  32   17   18 ar
  33   17   19 1
  34   18   37 1
  35   19   38 1
  36   19   39 1
  37   19   40 1
  38   20   21 am
  39   20   24 2
  40   21   25 1
  41   21   26 1
  42   22   27 1
  43   25   41 1
  44   25   42 1
  45   25   43 1
  46   26   44 1
  47   26   45 1
  48   26   46 1

#	End of record

