#	Name: ASD01813689
#	Creating user name:	WinNT
#	Creation time:	15. 06. 2019 19:30

#	Modifying user name:	WinNT
#	Modification time:	15. 06. 2019 19:30

#	Program:	/corina/corina34_cracker 3.40 0067  02.08.2006

@<TRIPOS>MOLECULE
ASD01813689
  40   43    0    0    0
SMALL
NO_CHARGES


@<TRIPOS>ATOM
   1 C1             0.0965     1.4746     0.3424 C.ar    
   2 C2             0.0785     0.0883     0.3344 C.ar    
   3 C3             1.2490    -0.6318     0.2088 C.ar    
   4 C4             2.4672     0.0342     0.0876 C.ar    
   5 C5             2.4840     1.4395     0.0953 C.ar    
   6 C6             1.2913     2.1558     0.2236 C.ar    
   7 N7             3.6436    -0.6744    -0.0375 N.pl3   
   8 C8             4.8384    -0.0816    -0.1558 C.2     
   9 C9             4.9807     1.2913    -0.1607 C.2     
  10 C10            3.7786     2.1315    -0.0336 C.2     
  11 O11            3.8512     3.3480    -0.0331 O.2     
  12 C12            6.3100     1.9041    -0.2916 C.2     
  13 O13            6.4361     3.2463    -0.2952 O.3     
  14 O14            7.2959     1.2007    -0.3968 O.2     
  15 C15            3.5837    -2.1382    -0.0406 C.3     
  16 C16            3.4403    -2.6321    -1.4571 C.ar    
  17 C17            4.5503    -2.7828    -2.2700 C.ar    
  18 C18            4.3786    -3.2411    -3.5704 C.ar    
  19 N19            3.1719    -3.5306    -4.0290 N.ar    
  20 C20            2.0956    -3.3971    -3.2783 C.ar    
  21 C21            2.1926    -2.9517    -1.9745 C.ar    
  22 F22            1.2141    -1.9824     0.2038 F       
  23 F23            1.3071     3.5067     0.2306 F       
  24 N24            5.4916    -3.3974    -4.4022 N.pl3   
  25 C25            5.4835    -3.8370    -5.7016 C.2     
  26 C26            6.7624    -3.8349    -6.1218 C.2     
  27 N27            7.5349    -3.4069    -5.1119 N.2     
  28 C28            6.7857    -3.1368    -4.0783 C.2     
  29 H29           -0.8285     2.0238     0.4373 H       
  30 H30           -0.8622    -0.4340     0.4280 H       
  31 H31            5.7200    -0.6982    -0.2501 H       
  32 H32            7.3306     3.6029    -0.3837 H       
  33 H33            4.4991    -2.5403     0.3934 H       
  34 H34            2.7273    -2.4680     0.5476 H       
  35 H35            5.5367    -2.5469    -1.8987 H       
  36 H36            1.1266    -3.6429    -3.6870 H       
  37 H37            1.3062    -2.8452    -1.3668 H       
  38 H38            4.6175    -4.1294    -6.2768 H       
  39 H39            7.1072    -4.1275    -7.1025 H       
  40 H40            7.1358    -2.7735    -3.1234 H       
@<TRIPOS>BOND
   1    1    2 ar
   2    1    6 ar
   3    1   29 1
   4    2    3 ar
   5    2   30 1
   6    3    4 ar
   7    3   22 1
   8    4    5 ar
   9    4    7 1
  10    5    6 ar
  11    5   10 1
  12    6   23 1
  13    7    8 1
  14    7   15 1
  15    8    9 2
  16    8   31 1
  17    9   10 1
  18    9   12 1
  19   10   11 2
  20   12   13 1
  21   12   14 2
  22   13   32 1
  23   15   16 1
  24   15   33 1
  25   15   34 1
  26   16   17 ar
  27   16   21 ar
  28   17   18 ar
  29   17   35 1
  30   18   19 ar
  31   18   24 1
  32   19   20 ar
  33   20   21 ar
  34   20   36 1
  35   21   37 1
  36   24   25 1
  37   24   28 1
  38   25   26 2
  39   25   38 1
  40   26   27 1
  41   26   39 1
  42   27   28 2
  43   28   40 1

#	End of record

