#	Name: ASD00190013
#	Creating user name:	WinNT
#	Creation time:	15. 06. 2019 18:33

#	Modifying user name:	WinNT
#	Modification time:	15. 06. 2019 18:33

#	Program:	/corina/corina34_cracker 3.40 0067  02.08.2006

@<TRIPOS>MOLECULE
ASD00190013
  46   50    0    0    0
SMALL
NO_CHARGES


@<TRIPOS>ATOM
   1 C1             1.9654     1.2530    -1.3911 C.ar    
   2 C2             2.0204    -0.1101    -1.1770 C.ar    
   3 C3             1.1825    -0.6994    -0.2385 C.ar    
   4 C4             0.2913     0.0844     0.4825 C.ar    
   5 C5             0.2402     1.4485     0.2645 C.ar    
   6 C6             1.0767     2.0326    -0.6718 C.ar    
   7 N7             1.2362    -2.0794    -0.0205 N.pl3   
   8 C8             2.4407    -2.7533    -0.1402 C.ar    
   9 N9             3.5453    -2.0701    -0.3455 N.ar    
  10 C10            4.7414    -2.6656    -0.4698 C.ar    
  11 C11            4.8510    -4.0743    -0.3818 C.ar    
  12 C12            3.6820    -4.8369    -0.1612 C.ar    
  13 C13            2.4614    -4.1644    -0.0337 C.ar    
  14 N14            3.4092    -6.1723    -0.0252 N.pl3   
  15 C15            2.0579    -6.2898     0.1735 C.2     
  16 N16            1.5106    -5.0960     0.1671 N.2     
  17 C17            5.9005    -1.9053    -0.6889 C.ar    
  18 C18            7.1071    -2.5270    -0.8132 C.ar    
  19 C19            7.2112    -3.9115    -0.7267 C.ar    
  20 C20            6.1056    -4.6815    -0.5144 C.ar    
  21 C21            1.3335    -7.5566     0.3680 C.2     
  22 C22            2.0255    -8.6741     0.3523 C.2     
  23 C23           -0.1513    -7.4967     0.5787 C.3     
  24 C24           -0.7735    -8.8736     0.3372 C.3     
  25 C25            0.0207    -9.9136     1.1369 C.3     
  26 C26            1.4178   -10.0351     0.5285 C.3     
  27 Cl27           1.0109     3.7460    -0.9433 Cl      
  28 Cl28          -0.8734     2.4298     1.1649 Cl      
  29 H29            2.6199     1.7117    -2.1175 H       
  30 H30            2.7140    -0.7178    -1.7391 H       
  31 H31           -0.3614    -0.3712     1.2124 H       
  32 H32            0.4301    -2.5650     0.2146 H       
  33 H33            4.0514    -6.8984    -0.0629 H       
  34 H34            5.8366    -0.8295    -0.7593 H       
  35 H35            7.9952    -1.9362    -0.9817 H       
  36 H36            8.1780    -4.3817    -0.8286 H       
  37 H37            6.1977    -5.7556    -0.4487 H       
  38 H38            3.0933    -8.6091     0.2038 H       
  39 H39           -0.3588    -7.1807     1.6010 H       
  40 H40           -0.5860    -6.7771    -0.1151 H       
  41 H41           -1.8114    -8.8700     0.6704 H       
  42 H42           -0.7277    -9.1150    -0.7247 H       
  43 H43            0.1040    -9.5919     2.1750 H       
  44 H44           -0.4859   -10.8776     1.0887 H       
  45 H45            1.3477   -10.5253    -0.4426 H       
  46 H46            2.0483   -10.6319     1.1876 H       
@<TRIPOS>BOND
   1    1    2 ar
   2    1    6 ar
   3    1   29 1
   4    2    3 ar
   5    2   30 1
   6    3    4 ar
   7    3    7 1
   8    4    5 ar
   9    4   31 1
  10    5    6 ar
  11    5   28 1
  12    6   27 1
  13    7    8 1
  14    7   32 1
  15    8    9 ar
  16    8   13 ar
  17    9   10 ar
  18   10   11 ar
  19   10   17 ar
  20   11   12 ar
  21   11   20 ar
  22   12   13 ar
  23   12   14 1
  24   13   16 1
  25   14   15 1
  26   14   33 1
  27   15   16 2
  28   15   21 1
  29   17   18 ar
  30   17   34 1
  31   18   19 ar
  32   18   35 1
  33   19   20 ar
  34   19   36 1
  35   20   37 1
  36   21   22 2
  37   21   23 1
  38   22   26 1
  39   22   38 1
  40   23   24 1
  41   23   39 1
  42   23   40 1
  43   24   25 1
  44   24   41 1
  45   24   42 1
  46   25   26 1
  47   25   43 1
  48   25   44 1
  49   26   45 1
  50   26   46 1

#	End of record

