#	Name: ASD08070001
#	Creating user name:	WinNT
#	Creation time:	15. 06. 2019 21:14

#	Modifying user name:	WinNT
#	Modification time:	15. 06. 2019 21:14

#	Program:	/corina/corina34_cracker 3.40 0067  02.08.2006

@<TRIPOS>MOLECULE
ASD08070001
  17   18    0    0    0
SMALL
NO_CHARGES


@<TRIPOS>ATOM
   1 C1            -0.0167     1.3792     0.0096 C.ar    
   2 C2             0.0021    -0.0041     0.0020 C.ar    
   3 C3             1.1926    -0.6949    -0.0131 C.ar    
   4 C4             2.4149    -0.0021    -0.0210 C.ar    
   5 C5             2.3649     1.3979    -0.0130 C.ar    
   6 C6             1.1809     2.0799     0.0020 C.ar    
   7 C7             3.7916    -0.5145    -0.0374 C.2     
   8 N8             4.7941     0.3758    -0.0425 N.am    
   9 S9             4.0687     1.8818    -0.0273 S.o2    
  10 O10            4.3287     2.4944    -1.2828 O.2     
  11 O11            4.3536     2.4809     1.2294 O.2     
  12 O12            4.0151    -1.7092    -0.0456 O.2     
  13 Na13           6.8334    -0.0329    -0.0643 Du      
  14 H14           -0.9571     1.9101     0.0170 H       
  15 H15           -0.9301    -0.5494     0.0084 H       
  16 H16            1.1870    -1.7749    -0.0184 H       
  17 H17            1.1773     3.1598     0.0074 H       
@<TRIPOS>BOND
   1    1    2 ar
   2    1    6 ar
   3    1   14 1
   4    2    3 ar
   5    2   15 1
   6    3    4 ar
   7    3   16 1
   8    4    5 ar
   9    4    7 1
  10    5    6 ar
  11    5    9 1
  12    6   17 1
  13    7    8 am
  14    7   12 2
  15    8    9 am
  16    8   13 1
  17    9   10 2
  18    9   11 2

#	End of record

