#	Name: ASD06600010
#	Creating user name:	WinNT
#	Creation time:	15. 06. 2019 21:06

#	Modifying user name:	WinNT
#	Modification time:	15. 06. 2019 21:06

#	Program:	/corina/corina34_cracker 3.40 0067  02.08.2006

@<TRIPOS>MOLECULE
ASD06600010
 340  343    0    0    0
SMALL
NO_CHARGES


@<TRIPOS>ATOM
   1 C1           -12.7474     5.0401    -5.9570 C.2     
   2 O2           -13.4482     4.1116    -6.2999 O.2     
   3 N3           -11.2027     4.2401    -7.6490 N.am    
   4 C4           -11.4166     5.2673    -6.6266 C.3     
   5 C5           -11.4050     6.6496    -7.2823 C.3     
   6 C6           -15.0632     7.0842    -4.0848 C.2     
   7 O7           -14.3912     8.0769    -4.2688 O.2     
   8 N8           -13.1613     5.8721    -4.9808 N.am    
   9 C9           -14.5033     5.7239    -4.4121 C.3     
  10 C10          -14.4264     4.8835    -3.1359 C.3     
  11 C11          -13.3917     5.4912    -2.1866 C.3     
  12 C12          -13.8800     6.8602    -1.7088 C.3     
  13 C13          -14.0147     3.4533    -3.4910 C.3     
  14 C14          -17.8972     8.3209    -2.1350 C.2     
  15 O15          -18.3546     7.2169    -1.9281 O.2     
  16 N16          -16.3108     7.1975    -3.5877 N.am    
  17 C17          -16.8159     8.5071    -3.1680 C.3     
  18 C18          -17.3895     9.2447    -4.3795 C.3     
  19 C19          -16.2668     9.5378    -5.3767 C.3     
  20 C20          -18.4530     8.3731    -5.0506 C.3     
  21 C21          -20.1190    10.4466    -0.1581 C.2     
  22 O22          -19.9059    11.4148    -0.8567 O.2     
  23 N23          -18.3560     9.3814    -1.4410 N.am    
  24 C24          -19.3189     9.1848    -0.3546 C.3     
  25 C25          -18.5696     8.8497     0.9366 C.3     
  26 C26          -17.8681     7.5250     0.7810 C.2     
  27 C27          -16.5543     7.2982     0.9705 C.2     
  28 N28          -16.3427     5.9682     0.7260 N.pl3   
  29 C29          -17.5355     5.4281     0.3953 C.2     
  30 N30          -18.4440     6.3641     0.4352 N.2     
  31 C31          -22.3653    11.7782     2.4001 C.2     
  32 O32          -22.1087    10.8794     3.1728 O.2     
  33 N33          -21.0714    10.4992     0.7941 N.am    
  34 C34          -21.8493    11.7259     0.9852 C.3     
  35 C35          -23.0291    11.7385     0.0111 C.3     
  36 C36          -24.8529    13.7309     4.2337 C.2     
  37 O37          -25.2085    14.3427     3.2487 O.2     
  38 N38          -23.1121    12.8239     2.8068 N.am    
  39 C39          -23.6138    12.8747     4.1822 C.3     
  40 C40          -22.5415    13.4741     5.0944 C.3     
  41 C41          -21.3259    12.5457     5.1308 C.3     
  42 C42          -22.1216    14.8434     4.5564 C.3     
  43 C43          -27.1036    15.0365     6.8013 C.2     
  44 O44          -26.3283    14.7706     7.6953 O.2     
  45 N45          -25.5658    13.8168     5.3742 N.am    
  46 C46          -26.8239    14.5670     5.3969 C.3     
  47 C47          -27.9649    13.6638     4.9243 C.3     
  48 C48          -27.7473    13.2938     3.4798 C.2     
  49 C49          -27.6953    12.0434     2.9823 C.2     
  50 N50          -27.4838    12.1616     1.6351 N.pl3   
  51 C51          -27.4139    13.4811     1.3560 C.2     
  52 N52          -27.5773    14.1521     2.4633 N.2     
  53 C53          -29.9697    16.4144     8.6040 C.2     
  54 O54          -30.7249    16.2011     7.6793 O.2     
  55 N55          -28.2153    15.7518     7.0639 N.am    
  56 C56          -28.4872    16.2082     8.4292 C.3     
  57 C57          -27.7555    17.5282     8.6809 C.3     
  58 C58          -32.1393    18.0384    11.0573 C.2     
  59 O59          -31.2001    18.5361    11.6413 O.2     
  60 N60          -30.4565    16.8358     9.7881 N.am    
  61 C61          -31.8977    17.0362     9.9581 C.3     
  62 C62          -32.5576    15.7060    10.3266 C.3     
  63 C63          -32.4221    14.7423     9.1759 C.ar    
  64 C64          -31.3207    13.9099     9.0989 C.ar    
  65 C65          -31.1939    13.0259     8.0449 C.ar    
  66 C66          -32.1731    12.9735     7.0635 C.ar    
  67 O67          -32.0509    12.1044     6.0259 O.3     
  68 C68          -33.2775    13.8093     7.1434 C.ar    
  69 C69          -33.4021    14.6879     8.2021 C.ar    
  70 C70          -34.9996    19.1286    13.0557 C.2     
  71 O71          -35.7070    18.2405    12.6294 O.2     
  72 N72          -33.3991    18.3814    11.3915 N.am    
  73 C73          -33.6339    19.3556    12.4602 C.3     
  74 C74          -33.5572    20.7715    11.8855 C.3     
  75 C75          -32.1347    21.0457    11.3933 C.3     
  76 C76          -32.0579    22.4616    10.8186 C.3     
  77 N77          -30.6958    22.7241    10.3473 N.pl3   
  78 C78          -30.3847    23.9405     9.7872 C.2     
  79 N79          -29.1729    24.1741     9.3679 N.2     
  80 N80          -31.3518    24.9105     9.6694 N.pl3   
  81 C81          -37.2612    20.9736    15.2566 C.2     
  82 O82          -36.5755    21.9730    15.2158 O.2     
  83 N83          -35.4347    19.9125    14.0620 N.am    
  84 C84          -36.7623    19.6918    14.6409 C.3     
  85 C85          -36.6753    18.6086    15.7179 C.3     
  86 C86          -36.2948    17.2967    15.0815 C.2     
  87 C87          -35.2498    16.5218    15.4296 C.2     
  88 N88          -35.2725    15.4313    14.6026 N.pl3   
  89 C89          -36.3313    15.5779    13.7773 C.2     
  90 N90          -36.9409    16.6933    14.0728 N.2     
  91 C91          -39.9546    21.9371    17.5326 C.2     
  92 O92          -40.2346    20.7831    17.7792 O.2     
  93 N93          -38.4696    21.0092    15.8525 N.am    
  94 C94          -38.9546    22.2553    16.4511 C.3     
  95 C95          -39.6235    23.1119    15.3741 C.3     
  96 C96          -38.5792    23.5389    14.3407 C.3     
  97 C97          -39.2480    24.3955    13.2637 C.3     
  98 N98          -38.2481    24.8044    12.2742 N.pl3   
  99 C99          -38.6182    25.5858    11.2053 C.2     
 100 N100         -39.8589    25.9628    11.0723 N.2     
 101 N101         -37.6799    25.9695    10.2767 N.pl3   
 102 C102         -42.4371    23.7986    19.4652 C.2     
 103 O103         -42.2995    24.7950    18.7875 O.2     
 104 N104         -40.5378    22.9349    18.2259 N.am    
 105 C105         -41.5100    22.6255    19.2774 C.3     
 106 C106         -40.7718    22.3440    20.5876 C.3     
 107 C107         -39.9251    21.0789    20.4343 C.3     
 108 C108         -39.1869    20.7974    21.7445 C.3     
 109 N109         -38.3761    19.5860    21.5977 N.pl3   
 110 C110         -37.6194    19.1333    22.6525 C.2     
 111 N111         -37.6233    19.7819    23.7831 N.2     
 112 N112         -36.8586    17.9966    22.5147 N.pl3   
 113 C113         -44.8525    24.8148    22.0237 C.2     
 114 O114         -45.0085    23.7270    22.5369 O.2     
 115 N115         -43.4193    23.7405    20.3863 N.am    
 116 C116         -44.2505    24.9186    20.6460 C.3     
 117 C117         -45.3692    24.9931    19.6049 C.3     
 118 C118         -46.1491    26.2968    19.7867 C.3     
 119 C119         -45.2494    27.4828    19.4335 C.3     
 120 C120         -47.3716    26.2923    18.8667 C.3     
 121 C121         -46.5903    27.0216    24.3631 C.2     
 122 O122         -46.7919    27.8596    23.5098 O.2     
 123 N123         -45.2176    25.9307    22.6854 N.am    
 124 C124         -45.7066    25.8383    24.0633 C.3     
 125 C125         -44.5181    25.8323    25.0268 C.3     
 126 C126         -43.6888    24.5657    24.8058 C.3     
 127 C127         -42.4342    24.6185    25.6800 C.3     
 128 C128         -44.5216    23.3387    25.1826 C.3     
 129 C129         -48.0209    28.5588    27.3554 C.2     
 130 O130         -47.3709    27.8527    28.0968 O.2     
 131 N131         -47.1567    27.1487    25.5795 N.am    
 132 C132         -48.0158    28.2990    25.8709 C.3     
 133 C133         -49.4412    28.0032    25.4001 C.3     
 134 O134         -49.9815    26.9243    26.1655 O.3     
 135 C135         -49.7872    28.9534    29.9616 C.2     
 136 O136         -50.4520    28.1963    29.2948 O.2     
 137 N137         -48.7478    29.5759    27.8590 N.am    
 138 C138         -48.7527    29.8285    29.3020 C.3     
 139 C139         -49.0881    31.2986    29.5613 C.3     
 140 C140         -48.9714    31.5920    31.0584 C.3     
 141 C141         -49.1843    33.0872    31.3032 C.3     
 142 C142         -50.5169    31.5856    29.0952 C.3     
 143 O143         -49.9699    29.0149    31.2900 O.3     
 144 C144          -9.9500     3.9104    -8.0214 C.2     
 145 O145          -8.9999     4.4642    -7.5101 O.2     
 146 C146           2.3406    -5.9231   -18.1914 C.3     
 147 C147           2.1172    -4.8503   -17.1237 C.3     
 148 C148           0.6162    -4.6693   -16.8888 C.3     
 149 C149           0.3929    -3.5965   -15.8210 C.3     
 150 C150          -1.1081    -3.4155   -15.5861 C.3     
 151 C151          -1.3315    -2.3426   -14.5184 C.3     
 152 C152          -2.8325    -2.1616   -14.2835 C.3     
 153 C153          -3.0559    -1.0888   -13.2158 C.3     
 154 C154          -4.5569    -0.9078   -12.9809 C.3     
 155 C155          -4.7803     0.1651   -11.9132 C.3     
 156 C156          -6.2813     0.3461   -11.6783 C.3     
 157 C157          -6.5046     1.4189   -10.6105 C.3     
 158 C158          -8.0056     1.5999   -10.3756 C.3     
 159 C159          -8.2290     2.6727    -9.3079 C.3     
 160 C160          -9.7300     2.8537    -9.0730 C.3     
 161 H161         -11.9626     3.7971    -8.0579 H       
 162 H162         -10.6215     5.2111    -5.8832 H       
 163 H163         -12.2001     6.7058    -8.0258 H       
 164 H164         -11.5641     7.4139    -6.5217 H       
 165 H165         -10.4424     6.8139    -7.7667 H       
 166 H166         -12.5707     6.5691    -4.6547 H       
 167 H167         -15.1515     5.2284    -5.1349 H       
 168 H168         -15.4020     4.8707    -2.6500 H       
 169 H169         -13.2562     4.8337    -1.3279 H       
 170 H170         -12.4423     5.6063    -2.7095 H       
 171 H171         -14.9167     6.7821    -1.3813 H       
 172 H172         -13.2607     7.1970    -0.8775 H       
 173 H173         -13.8106     7.5767    -2.5273 H       
 174 H174         -12.9966     3.4544    -3.8804 H       
 175 H175         -14.0617     2.8295    -2.5985 H       
 176 H176         -14.6925     3.0573    -4.2472 H       
 177 H177         -16.8743     6.4120    -3.5077 H       
 178 H178         -16.0009     9.0906    -2.7398 H       
 179 H179         -17.8404    10.1822    -4.0542 H       
 180 H180         -15.8159     8.6003    -5.7021 H       
 181 H181         -16.6754    10.0632    -6.2399 H       
 182 H182         -15.5091    10.1587    -4.8987 H       
 183 H183         -19.2096     8.0940    -4.3174 H       
 184 H184         -18.9213     8.9311    -5.8615 H       
 185 H185         -17.9858     7.4735    -5.4511 H       
 186 H186         -18.0486    10.2747    -1.6610 H       
 187 H187         -19.9904     8.3645    -0.6082 H       
 188 H188         -17.8348     9.6280     1.1426 H       
 189 H189         -19.2779     8.7909     1.7630 H       
 190 H190         -15.8104     8.0260     1.2595 H       
 191 H191         -15.4944     5.5008     0.7801 H       
 192 H192         -17.7094     4.3924     0.1436 H       
 193 H193         -21.2419     9.7249     1.3529 H       
 194 H194         -21.2141    12.5917     0.7978 H       
 195 H195         -23.6642    10.8727     0.1985 H       
 196 H196         -23.6078    12.6512     0.1533 H       
 197 H197         -22.6558    11.7007    -1.0122 H       
 198 H198         -23.3174    13.5428     2.1887 H       
 199 H199         -23.8547    11.8663     4.5186 H       
 200 H200         -22.9429    13.5868     6.1015 H       
 201 H201         -20.9246    12.4330     4.1236 H       
 202 H202         -20.5620    12.9727     5.7806 H       
 203 H203         -21.6251    11.5702     5.5140 H       
 204 H204         -22.9651    15.5312     4.6154 H       
 205 H205         -21.2951    15.2302     5.1526 H       
 206 H206         -21.8053    14.7445     3.5180 H       
 207 H207         -25.2459    13.3819     6.1800 H       
 208 H208         -26.7449    15.4291     4.7345 H       
 209 H209         -27.9874    12.7590     5.5317 H       
 210 H210         -28.9126    14.1927     5.0252 H       
 211 H211         -27.8001    11.1241     3.5393 H       
 212 H212         -27.3999    11.4337     0.9996 H       
 213 H213         -27.2534    13.9099     0.3779 H       
 214 H214         -28.8353    15.9645     6.3489 H       
 215 H215         -28.1384    15.4583     9.1392 H       
 216 H216         -28.1043    18.2781     7.9709 H       
 217 H217         -27.9578    17.8677     9.6967 H       
 218 H218         -26.6832    17.3790     8.5544 H       
 219 H219         -29.8525    17.0064    10.5277 H       
 220 H220         -32.3251    17.4082     9.0269 H       
 221 H221         -32.0697    15.2902    11.2081 H       
 222 H222         -33.6137    15.8711    10.5398 H       
 223 H223         -30.5587    13.9512     9.8631 H       
 224 H224         -30.3331    12.3765     7.9848 H       
 225 H225         -32.4478    11.2379     6.1897 H       
 226 H226         -34.0409    13.7706     6.3804 H       
 227 H227         -34.2638    15.3357     8.2671 H       
 228 H228         -34.1503    17.9833    10.9245 H       
 229 H229         -32.8757    19.2360    13.2340 H       
 230 H230         -34.2540    20.8638    11.0524 H       
 231 H231         -33.8190    21.4926    12.6598 H       
 232 H232         -31.4378    20.9534    12.2264 H       
 233 H233         -31.8728    20.3246    10.6190 H       
 234 H234         -32.7547    22.5538     9.9855 H       
 235 H235         -32.3197    23.1827    11.5929 H       
 236 H236         -30.0135    22.0397    10.4304 H       
 237 H237         -28.9533    25.0323     8.9727 H       
 238 H238         -32.2536    24.7367     9.9814 H       
 239 H239         -31.1323    25.7688     9.2742 H       
 240 H240         -34.8690    20.6228    14.4029 H       
 241 H241         -37.4511    19.3721    13.8589 H       
 242 H242         -35.9212    18.8877    16.4538 H       
 243 H243         -37.6427    18.5068    16.2098 H       
 244 H244         -34.5317    16.7225    16.2110 H       
 245 H245         -34.6452    14.6915    14.6083 H       
 246 H246         -36.6270    14.8848    13.0036 H       
 247 H247         -39.0181    20.2098    15.8851 H       
 248 H248         -38.1158    22.8023    16.8813 H       
 249 H249         -40.4052    22.5326    14.8827 H       
 250 H250         -40.0622    23.9971    15.8345 H       
 251 H251         -37.7974    24.1181    14.8321 H       
 252 H252         -38.1404    22.6537    13.8803 H       
 253 H253         -40.0297    23.8163    12.7723 H       
 254 H254         -39.6867    25.2807    13.7241 H       
 255 H255         -37.3248    24.5238    12.3732 H       
 256 H256         -40.1200    26.5141    10.3181 H       
 257 H257         -36.7566    25.6890    10.3757 H       
 258 H258         -37.9410    26.5208     9.5225 H       
 259 H259         -40.3139    23.8579    18.0287 H       
 260 H260         -42.0885    21.7475    18.9904 H       
 261 H261         -40.1246    23.1874    20.8285 H       
 262 H262         -41.4963    22.2013    21.3894 H       
 263 H263         -40.5722    20.2356    20.1934 H       
 264 H264         -39.2006    21.2216    19.6325 H       
 265 H265         -38.5397    21.6408    21.9854 H       
 266 H266         -39.9114    20.6547    22.5463 H       
 267 H267         -38.3733    19.1034    20.7563 H       
 268 H268         -37.0894    19.4625    24.5273 H       
 269 H269         -36.8557    17.5139    21.6733 H       
 270 H270         -36.3246    17.6772    23.2589 H       
 271 H271         -43.5759    22.9187    20.8772 H       
 272 H272         -43.6366    25.8172    20.5846 H       
 273 H273         -44.9371    24.9647    18.6046 H       
 274 H274         -46.0426    24.1458    19.7339 H       
 275 H275         -46.4748    26.3838    20.8233 H       
 276 H276         -44.8445    27.3458    18.4309 H       
 277 H277         -45.8319    28.4035    19.4674 H       
 278 H278         -44.4309    27.5442    20.1507 H       
 279 H279         -48.0126    25.4473    19.1183 H       
 280 H280         -47.9272    27.2211    18.9963 H       
 281 H281         -47.0459    26.2053    17.8302 H       
 282 H282         -45.1567    26.7950    22.2493 H       
 283 H283         -46.2778    24.9181    24.1852 H       
 284 H284         -43.8975    26.7095    24.8438 H       
 285 H285         -44.8828    25.8532    26.0538 H       
 286 H286         -43.3986    24.4998    23.7573 H       
 287 H287         -42.7245    24.6844    26.7285 H       
 288 H288         -41.8434    23.7162    25.5225 H       
 289 H289         -41.8410    25.4927    25.4116 H       
 290 H290         -44.8118    23.4046    26.2311 H       
 291 H291         -45.4154    23.3010    24.5598 H       
 292 H292         -43.9308    22.4363    25.0251 H       
 293 H293         -46.9955    26.4785    26.2619 H       
 294 H294         -47.6358    29.1776    25.3496 H       
 295 H295         -50.0599    28.8903    25.5354 H       
 296 H296         -49.4258    27.7285    24.3454 H       
 297 H297         -50.8850    26.6820    25.9205 H       
 298 H298         -49.2676    30.1407    27.2659 H       
 299 H299         -47.7692    29.6021    29.7139 H       
 300 H300         -48.3924    31.9325    29.0115 H       
 301 H301         -49.7276    31.0238    31.6000 H       
 302 H302         -47.9803    31.3040    31.4088 H       
 303 H303         -49.1012    33.2962    32.3697 H       
 304 H304         -48.4281    33.6554    30.7615 H       
 305 H305         -50.1755    33.3752    30.9527 H       
 306 H306         -50.7558    32.6329    29.2799 H       
 307 H307         -50.6000    31.3766    28.0287 H       
 308 H308         -51.2126    30.9518    29.6450 H       
 309 H309         -50.6449    28.4344    31.6676 H       
 310 H310           1.8618    -5.6157   -19.1211 H       
 311 H311           3.4099    -6.0521   -18.3587 H       
 312 H312           1.9092    -6.8659   -17.8550 H       
 313 H313           2.5960    -5.1577   -16.1939 H       
 314 H314           2.5486    -3.9075   -17.4600 H       
 315 H315           0.1375    -4.3619   -17.8185 H       
 316 H316           0.1848    -5.6121   -16.5524 H       
 317 H317           0.8716    -3.9039   -14.8913 H       
 318 H318           0.8243    -2.6537   -16.1574 H       
 319 H319          -1.5869    -3.1080   -16.5158 H       
 320 H320          -1.5395    -4.3582   -15.2497 H       
 321 H321          -0.8527    -2.6501   -13.5887 H       
 322 H322          -0.9001    -1.3998   -14.8548 H       
 323 H323          -3.3113    -1.8542   -15.2132 H       
 324 H324          -3.2639    -3.1044   -13.9471 H       
 325 H325          -2.5771    -1.3962   -12.2861 H       
 326 H326          -2.6245    -0.1460   -13.5522 H       
 327 H327          -5.0357    -0.6004   -13.9106 H       
 328 H328          -4.9883    -1.8506   -12.6445 H       
 329 H329          -4.3015    -0.1424   -10.9835 H       
 330 H330          -4.3489     1.1078   -12.2496 H       
 331 H331          -6.7600     0.6535   -12.6080 H       
 332 H332          -6.7127    -0.5967   -11.3419 H       
 333 H333          -6.0259     1.1115    -9.6808 H       
 334 H334          -6.0732     2.3617   -10.9469 H       
 335 H335          -8.4844     1.9073   -11.3054 H       
 336 H336          -8.4370     0.6571   -10.0393 H       
 337 H337          -7.7502     2.3653    -8.3782 H       
 338 H338          -7.7976     3.6155    -9.6443 H       
 339 H339         -10.1614     1.9110    -8.7366 H       
 340 H340         -10.2088     3.1612   -10.0027 H       
@<TRIPOS>BOND
   1    1    2 2
   2    1    4 1
   3    1    8 am
   4    3  144 am
   5    3    4 1
   6    3  161 1
   7    4    5 1
   8    4  162 1
   9    5  163 1
  10    5  164 1
  11    5  165 1
  12    6    7 2
  13    6    9 1
  14    6   16 am
  15    8    9 1
  16    8  166 1
  17    9   10 1
  18    9  167 1
  19   10   11 1
  20   10   13 1
  21   10  168 1
  22   11   12 1
  23   11  169 1
  24   11  170 1
  25   12  171 1
  26   12  172 1
  27   12  173 1
  28   13  174 1
  29   13  175 1
  30   13  176 1
  31   14   15 2
  32   14   17 1
  33   14   23 am
  34   16   17 1
  35   16  177 1
  36   17   18 1
  37   17  178 1
  38   18   19 1
  39   18   20 1
  40   18  179 1
  41   19  180 1
  42   19  181 1
  43   19  182 1
  44   20  183 1
  45   20  184 1
  46   20  185 1
  47   21   22 2
  48   21   24 1
  49   21   33 am
  50   23   24 1
  51   23  186 1
  52   24   25 1
  53   24  187 1
  54   25   26 1
  55   25  188 1
  56   25  189 1
  57   26   27 2
  58   26   30 1
  59   27   28 1
  60   27  190 1
  61   28   29 1
  62   28  191 1
  63   29   30 2
  64   29  192 1
  65   31   32 2
  66   31   34 1
  67   31   38 am
  68   33   34 1
  69   33  193 1
  70   34   35 1
  71   34  194 1
  72   35  195 1
  73   35  196 1
  74   35  197 1
  75   36   37 2
  76   36   39 1
  77   36   45 am
  78   38   39 1
  79   38  198 1
  80   39   40 1
  81   39  199 1
  82   40   41 1
  83   40   42 1
  84   40  200 1
  85   41  201 1
  86   41  202 1
  87   41  203 1
  88   42  204 1
  89   42  205 1
  90   42  206 1
  91   43   44 2
  92   43   46 1
  93   43   55 am
  94   45   46 1
  95   45  207 1
  96   46   47 1
  97   46  208 1
  98   47   48 1
  99   47  209 1
 100   47  210 1
 101   48   49 2
 102   48   52 1
 103   49   50 1
 104   49  211 1
 105   50   51 1
 106   50  212 1
 107   51   52 2
 108   51  213 1
 109   53   54 2
 110   53   56 1
 111   53   60 am
 112   55   56 1
 113   55  214 1
 114   56   57 1
 115   56  215 1
 116   57  216 1
 117   57  217 1
 118   57  218 1
 119   58   59 2
 120   58   61 1
 121   58   72 am
 122   60   61 1
 123   60  219 1
 124   61   62 1
 125   61  220 1
 126   62   63 1
 127   62  221 1
 128   62  222 1
 129   63   64 ar
 130   63   69 ar
 131   64   65 ar
 132   64  223 1
 133   65   66 ar
 134   65  224 1
 135   66   67 1
 136   66   68 ar
 137   67  225 1
 138   68   69 ar
 139   68  226 1
 140   69  227 1
 141   70   71 2
 142   70   73 1
 143   70   83 am
 144   72   73 1
 145   72  228 1
 146   73   74 1
 147   73  229 1
 148   74   75 1
 149   74  230 1
 150   74  231 1
 151   75   76 1
 152   75  232 1
 153   75  233 1
 154   76   77 1
 155   76  234 1
 156   76  235 1
 157   77   78 1
 158   77  236 1
 159   78   79 2
 160   78   80 1
 161   79  237 1
 162   80  238 1
 163   80  239 1
 164   81   82 2
 165   81   84 1
 166   81   93 am
 167   83   84 1
 168   83  240 1
 169   84   85 1
 170   84  241 1
 171   85   86 1
 172   85  242 1
 173   85  243 1
 174   86   87 2
 175   86   90 1
 176   87   88 1
 177   87  244 1
 178   88   89 1
 179   88  245 1
 180   89   90 2
 181   89  246 1
 182   91   92 2
 183   91   94 1
 184   91  104 am
 185   93   94 1
 186   93  247 1
 187   94   95 1
 188   94  248 1
 189   95   96 1
 190   95  249 1
 191   95  250 1
 192   96   97 1
 193   96  251 1
 194   96  252 1
 195   97   98 1
 196   97  253 1
 197   97  254 1
 198   98   99 1
 199   98  255 1
 200   99  100 2
 201   99  101 1
 202  100  256 1
 203  101  257 1
 204  101  258 1
 205  102  103 2
 206  102  105 1
 207  102  115 am
 208  104  105 1
 209  104  259 1
 210  105  106 1
 211  105  260 1
 212  106  107 1
 213  106  261 1
 214  106  262 1
 215  107  108 1
 216  107  263 1
 217  107  264 1
 218  108  109 1
 219  108  265 1
 220  108  266 1
 221  109  110 1
 222  109  267 1
 223  110  111 2
 224  110  112 1
 225  111  268 1
 226  112  269 1
 227  112  270 1
 228  113  114 2
 229  113  116 1
 230  113  123 am
 231  115  116 1
 232  115  271 1
 233  116  117 1
 234  116  272 1
 235  117  118 1
 236  117  273 1
 237  117  274 1
 238  118  119 1
 239  118  120 1
 240  118  275 1
 241  119  276 1
 242  119  277 1
 243  119  278 1
 244  120  279 1
 245  120  280 1
 246  120  281 1
 247  121  122 2
 248  121  124 1
 249  121  131 am
 250  123  124 1
 251  123  282 1
 252  124  125 1
 253  124  283 1
 254  125  126 1
 255  125  284 1
 256  125  285 1
 257  126  127 1
 258  126  128 1
 259  126  286 1
 260  127  287 1
 261  127  288 1
 262  127  289 1
 263  128  290 1
 264  128  291 1
 265  128  292 1
 266  129  130 2
 267  129  132 1
 268  129  137 am
 269  131  132 1
 270  131  293 1
 271  132  133 1
 272  132  294 1
 273  133  134 1
 274  133  295 1
 275  133  296 1
 276  134  297 1
 277  135  136 2
 278  135  138 1
 279  135  143 1
 280  137  138 1
 281  137  298 1
 282  138  139 1
 283  138  299 1
 284  139  140 1
 285  139  142 1
 286  139  300 1
 287  140  141 1
 288  140  301 1
 289  140  302 1
 290  141  303 1
 291  141  304 1
 292  141  305 1
 293  142  306 1
 294  142  307 1
 295  142  308 1
 296  143  309 1
 297  144  145 2
 298  144  160 1
 299  146  147 1
 300  146  310 1
 301  146  311 1
 302  146  312 1
 303  147  148 1
 304  147  313 1
 305  147  314 1
 306  148  149 1
 307  148  315 1
 308  148  316 1
 309  149  150 1
 310  149  317 1
 311  149  318 1
 312  150  151 1
 313  150  319 1
 314  150  320 1
 315  151  152 1
 316  151  321 1
 317  151  322 1
 318  152  153 1
 319  152  323 1
 320  152  324 1
 321  153  154 1
 322  153  325 1
 323  153  326 1
 324  154  155 1
 325  154  327 1
 326  154  328 1
 327  155  156 1
 328  155  329 1
 329  155  330 1
 330  156  157 1
 331  156  331 1
 332  156  332 1
 333  157  158 1
 334  157  333 1
 335  157  334 1
 336  158  159 1
 337  158  335 1
 338  158  336 1
 339  159  160 1
 340  159  337 1
 341  159  338 1
 342  160  339 1
 343  160  340 1

#	End of record

