#	Name: ASD08390033
#	Creating user name:	WinNT
#	Creation time:	15. 06. 2019 21:19

#	Modifying user name:	WinNT
#	Modification time:	15. 06. 2019 21:19

#	Program:	/corina/corina34_cracker 3.40 0067  02.08.2006

@<TRIPOS>MOLECULE
ASD08390033
  50   53    0    0    0
SMALL
NO_CHARGES


@<TRIPOS>ATOM
   1 C1            -0.2105     1.5206    -0.1695 C.3     
   2 C2            -0.0158     0.0665     0.3040 C.3     
   3 N3             1.1601     1.9624    -0.4771 N.pl3   
   4 C4             2.0158     0.9225    -0.2205 C.2     
   5 N5             1.4348    -0.1478     0.2109 N.2     
   6 C6             1.5436     3.2864    -0.9733 C.3     
   7 C7             1.6930     4.2344     0.1886 C.ar    
   8 C8             2.9380     4.4497     0.7493 C.ar    
   9 C9             3.0751     5.3193     1.8151 C.ar    
  10 C10            1.9671     5.9738     2.3201 C.ar    
  11 C11            0.7222     5.7591     1.7588 C.ar    
  12 C12            0.5858     4.8928     0.6902 C.ar    
  13 C13            3.4799     1.0176    -0.4211 C.ar    
  14 C14            4.3525     0.4774     0.5232 C.ar    
  15 C15            5.7158     0.5692     0.3307 C.ar    
  16 C16            6.2175     1.1959    -0.7959 C.ar    
  17 C17            5.3570     1.7340    -1.7360 C.ar    
  18 C18            3.9917     1.6426    -1.5579 C.ar    
  19 C19           -1.0736     1.5668    -1.4040 C.ar    
  20 C20           -2.4143     1.8864    -1.2985 C.ar    
  21 C21           -3.2061     1.9287    -2.4308 C.ar    
  22 C22           -2.6569     1.6517    -3.6688 C.ar    
  23 C23           -1.3160     1.3330    -3.7745 C.ar    
  24 C24           -0.5233     1.2949    -2.6427 C.ar    
  25 C25           -0.7498    -0.8870    -0.6033 C.2     
  26 O26           -1.8873    -1.2067    -0.3505 O.2     
  27 O27           -0.1399    -1.3812    -1.6921 O.3     
  28 C28           -0.4931    -0.0953     1.7486 C.3     
  29 H29           -0.6415     2.1295     0.6252 H       
  30 H30            2.4911     3.2139    -1.5072 H       
  31 H31            0.7734     3.6583    -1.6489 H       
  32 H32            3.8037     3.9384     0.3548 H       
  33 H33            4.0477     5.4870     2.2536 H       
  34 H34            2.0740     6.6526     3.1532 H       
  35 H35           -0.1435     6.2701     2.1535 H       
  36 H36           -0.3868     4.7251     0.2517 H       
  37 H37            3.9620    -0.0115     1.4035 H       
  38 H38            6.3925     0.1512     1.0613 H       
  39 H39            7.2853     1.2656    -0.9420 H       
  40 H40            5.7546     2.2224    -2.6134 H       
  41 H41            3.3208     2.0629    -2.2926 H       
  42 H42           -2.8433     2.1028    -0.3312 H       
  43 H43           -4.2537     2.1777    -2.3483 H       
  44 H44           -3.2757     1.6840    -4.5535 H       
  45 H45           -0.8871     1.1163    -4.7417 H       
  46 H46            0.5243     1.0459    -2.7252 H       
  47 H47           -0.6511    -1.9892    -2.2436 H       
  48 H48           -1.5511     0.1590     1.8123 H       
  49 H49           -0.3480    -1.1281     2.0656 H       
  50 H50            0.0797     0.5677     2.3969 H       
@<TRIPOS>BOND
   1    1    2 1
   2    1    3 1
   3    1   19 1
   4    1   29 1
   5    2   25 1
   6    2   28 1
   7    2    5 1
   8    3    4 1
   9    3    6 1
  10    4    5 2
  11    4   13 1
  12    6    7 1
  13    6   30 1
  14    6   31 1
  15    7    8 ar
  16    7   12 ar
  17    8    9 ar
  18    8   32 1
  19    9   10 ar
  20    9   33 1
  21   10   11 ar
  22   10   34 1
  23   11   12 ar
  24   11   35 1
  25   12   36 1
  26   13   14 ar
  27   13   18 ar
  28   14   15 ar
  29   14   37 1
  30   15   16 ar
  31   15   38 1
  32   16   17 ar
  33   16   39 1
  34   17   18 ar
  35   17   40 1
  36   18   41 1
  37   19   20 ar
  38   19   24 ar
  39   20   21 ar
  40   20   42 1
  41   21   22 ar
  42   21   43 1
  43   22   23 ar
  44   22   44 1
  45   23   24 ar
  46   23   45 1
  47   24   46 1
  48   25   26 2
  49   25   27 1
  50   27   47 1
  51   28   48 1
  52   28   49 1
  53   28   50 1

#	End of record

